* NGSPICE file created from SPI.ext - technology: sky130A

* Black-box entry subcircuit for sky130_fd_sc_hd__fill_2 abstract view
.subckt sky130_fd_sc_hd__fill_2 VGND VNB VPB VPWR
.ends

* Black-box entry subcircuit for sky130_fd_sc_hd__decap_6 abstract view
.subckt sky130_fd_sc_hd__decap_6 VGND VNB VPB VPWR
.ends

* Black-box entry subcircuit for sky130_fd_sc_hd__mux2_1 abstract view
.subckt sky130_fd_sc_hd__mux2_1 A0 A1 S VGND VNB VPB VPWR X
.ends

* Black-box entry subcircuit for sky130_fd_sc_hd__and2_1 abstract view
.subckt sky130_fd_sc_hd__and2_1 A B VGND VNB VPB VPWR X
.ends

* Black-box entry subcircuit for sky130_fd_sc_hd__clkbuf_1 abstract view
.subckt sky130_fd_sc_hd__clkbuf_1 A VGND VNB VPB VPWR X
.ends

* Black-box entry subcircuit for sky130_fd_sc_hd__clkbuf_2 abstract view
.subckt sky130_fd_sc_hd__clkbuf_2 A VGND VNB VPB VPWR X
.ends

* Black-box entry subcircuit for sky130_fd_sc_hd__decap_4 abstract view
.subckt sky130_fd_sc_hd__decap_4 VGND VNB VPB VPWR
.ends

* Black-box entry subcircuit for sky130_fd_sc_hd__fill_1 abstract view
.subckt sky130_fd_sc_hd__fill_1 VGND VNB VPB VPWR
.ends

* Black-box entry subcircuit for sky130_fd_sc_hd__nor3_1 abstract view
.subckt sky130_fd_sc_hd__nor3_1 A B C VGND VNB VPB VPWR Y
.ends

* Black-box entry subcircuit for sky130_fd_sc_hd__dfxtp_1 abstract view
.subckt sky130_fd_sc_hd__dfxtp_1 CLK D VGND VNB VPB VPWR Q
.ends

* Black-box entry subcircuit for sky130_fd_sc_hd__diode_2 abstract view
.subckt sky130_fd_sc_hd__diode_2 DIODE VGND VNB VPB VPWR
.ends

* Black-box entry subcircuit for sky130_fd_sc_hd__nand2_1 abstract view
.subckt sky130_fd_sc_hd__nand2_1 A B VGND VNB VPB VPWR Y
.ends

* Black-box entry subcircuit for sky130_fd_sc_hd__decap_8 abstract view
.subckt sky130_fd_sc_hd__decap_8 VGND VNB VPB VPWR
.ends

* Black-box entry subcircuit for sky130_fd_sc_hd__decap_3 abstract view
.subckt sky130_fd_sc_hd__decap_3 VGND VNB VPB VPWR
.ends

* Black-box entry subcircuit for sky130_fd_sc_hd__decap_12 abstract view
.subckt sky130_fd_sc_hd__decap_12 VGND VNB VPB VPWR
.ends

* Black-box entry subcircuit for sky130_fd_sc_hd__and3_1 abstract view
.subckt sky130_fd_sc_hd__and3_1 A B C VGND VNB VPB VPWR X
.ends

* Black-box entry subcircuit for sky130_fd_sc_hd__buf_2 abstract view
.subckt sky130_fd_sc_hd__buf_2 A VGND VNB VPB VPWR X
.ends

* Black-box entry subcircuit for sky130_fd_sc_hd__tapvpwrvgnd_1 abstract view
.subckt sky130_fd_sc_hd__tapvpwrvgnd_1 VGND VPWR
.ends

* Black-box entry subcircuit for sky130_fd_sc_hd__o211a_1 abstract view
.subckt sky130_fd_sc_hd__o211a_1 A1 A2 B1 C1 VGND VNB VPB VPWR X
.ends

* Black-box entry subcircuit for sky130_fd_sc_hd__o21a_1 abstract view
.subckt sky130_fd_sc_hd__o21a_1 A1 A2 B1 VGND VNB VPB VPWR X
.ends

* Black-box entry subcircuit for sky130_fd_sc_hd__and2b_1 abstract view
.subckt sky130_fd_sc_hd__and2b_1 A_N B VGND VNB VPB VPWR X
.ends

* Black-box entry subcircuit for sky130_fd_sc_hd__nor2_2 abstract view
.subckt sky130_fd_sc_hd__nor2_2 A B VGND VNB VPB VPWR Y
.ends

* Black-box entry subcircuit for sky130_fd_sc_hd__or2_1 abstract view
.subckt sky130_fd_sc_hd__or2_1 A B VGND VNB VPB VPWR X
.ends

* Black-box entry subcircuit for sky130_fd_sc_hd__conb_1 abstract view
.subckt sky130_fd_sc_hd__conb_1 VGND VNB VPB VPWR HI LO
.ends

* Black-box entry subcircuit for sky130_fd_sc_hd__dlymetal6s2s_1 abstract view
.subckt sky130_fd_sc_hd__dlymetal6s2s_1 A VGND VNB VPB VPWR X
.ends

* Black-box entry subcircuit for sky130_fd_sc_hd__a211o_1 abstract view
.subckt sky130_fd_sc_hd__a211o_1 A1 A2 B1 C1 VGND VNB VPB VPWR X
.ends

* Black-box entry subcircuit for sky130_fd_sc_hd__and3b_1 abstract view
.subckt sky130_fd_sc_hd__and3b_1 A_N B C VGND VNB VPB VPWR X
.ends

* Black-box entry subcircuit for sky130_fd_sc_hd__a22o_1 abstract view
.subckt sky130_fd_sc_hd__a22o_1 A1 A2 B1 B2 VGND VNB VPB VPWR X
.ends

* Black-box entry subcircuit for sky130_fd_sc_hd__xor2_1 abstract view
.subckt sky130_fd_sc_hd__xor2_1 A B VGND VNB VPB VPWR X
.ends

* Black-box entry subcircuit for sky130_fd_sc_hd__clkbuf_16 abstract view
.subckt sky130_fd_sc_hd__clkbuf_16 A VGND VNB VPB VPWR X
.ends

* Black-box entry subcircuit for sky130_fd_sc_hd__or2b_1 abstract view
.subckt sky130_fd_sc_hd__or2b_1 A B_N VGND VNB VPB VPWR X
.ends

* Black-box entry subcircuit for sky130_fd_sc_hd__a21o_1 abstract view
.subckt sky130_fd_sc_hd__a21o_1 A1 A2 B1 VGND VNB VPB VPWR X
.ends

* Black-box entry subcircuit for sky130_fd_sc_hd__o21ai_1 abstract view
.subckt sky130_fd_sc_hd__o21ai_1 A1 A2 B1 VGND VNB VPB VPWR Y
.ends

* Black-box entry subcircuit for sky130_fd_sc_hd__and4b_1 abstract view
.subckt sky130_fd_sc_hd__and4b_1 A_N B C D VGND VNB VPB VPWR X
.ends

* Black-box entry subcircuit for sky130_fd_sc_hd__a31oi_1 abstract view
.subckt sky130_fd_sc_hd__a31oi_1 A1 A2 A3 B1 VGND VNB VPB VPWR Y
.ends

* Black-box entry subcircuit for sky130_fd_sc_hd__a21boi_1 abstract view
.subckt sky130_fd_sc_hd__a21boi_1 A1 A2 B1_N VGND VNB VPB VPWR Y
.ends

* Black-box entry subcircuit for sky130_fd_sc_hd__or3_1 abstract view
.subckt sky130_fd_sc_hd__or3_1 A B C VGND VNB VPB VPWR X
.ends

* Black-box entry subcircuit for sky130_fd_sc_hd__a31o_1 abstract view
.subckt sky130_fd_sc_hd__a31o_1 A1 A2 A3 B1 VGND VNB VPB VPWR X
.ends

* Black-box entry subcircuit for sky130_fd_sc_hd__inv_2 abstract view
.subckt sky130_fd_sc_hd__inv_2 A VGND VNB VPB VPWR Y
.ends

* Black-box entry subcircuit for sky130_fd_sc_hd__and4_1 abstract view
.subckt sky130_fd_sc_hd__and4_1 A B C D VGND VNB VPB VPWR X
.ends

* Black-box entry subcircuit for sky130_fd_sc_hd__o21ba_1 abstract view
.subckt sky130_fd_sc_hd__o21ba_1 A1 A2 B1_N VGND VNB VPB VPWR X
.ends

* Black-box entry subcircuit for sky130_fd_sc_hd__o221a_1 abstract view
.subckt sky130_fd_sc_hd__o221a_1 A1 A2 B1 B2 C1 VGND VNB VPB VPWR X
.ends

* Black-box entry subcircuit for sky130_fd_sc_hd__nand3_1 abstract view
.subckt sky130_fd_sc_hd__nand3_1 A B C VGND VNB VPB VPWR Y
.ends

* Black-box entry subcircuit for sky130_fd_sc_hd__nor3b_1 abstract view
.subckt sky130_fd_sc_hd__nor3b_1 A B C_N VGND VNB VPB VPWR Y
.ends

* Black-box entry subcircuit for sky130_fd_sc_hd__a21bo_1 abstract view
.subckt sky130_fd_sc_hd__a21bo_1 A1 A2 B1_N VGND VNB VPB VPWR X
.ends

* Black-box entry subcircuit for sky130_fd_sc_hd__and4_2 abstract view
.subckt sky130_fd_sc_hd__and4_2 A B C D VGND VNB VPB VPWR X
.ends

* Black-box entry subcircuit for sky130_fd_sc_hd__a21oi_1 abstract view
.subckt sky130_fd_sc_hd__a21oi_1 A1 A2 B1 VGND VNB VPB VPWR Y
.ends

* Black-box entry subcircuit for sky130_fd_sc_hd__nor2_1 abstract view
.subckt sky130_fd_sc_hd__nor2_1 A B VGND VNB VPB VPWR Y
.ends

* Black-box entry subcircuit for sky130_fd_sc_hd__and4b_2 abstract view
.subckt sky130_fd_sc_hd__and4b_2 A_N B C D VGND VNB VPB VPWR X
.ends

* Black-box entry subcircuit for sky130_fd_sc_hd__a221o_1 abstract view
.subckt sky130_fd_sc_hd__a221o_1 A1 A2 B1 B2 C1 VGND VNB VPB VPWR X
.ends

* Black-box entry subcircuit for sky130_fd_sc_hd__or3b_2 abstract view
.subckt sky130_fd_sc_hd__or3b_2 A B C_N VGND VNB VPB VPWR X
.ends

* Black-box entry subcircuit for sky130_fd_sc_hd__o2111a_1 abstract view
.subckt sky130_fd_sc_hd__o2111a_1 A1 A2 B1 C1 D1 VGND VNB VPB VPWR X
.ends

* Black-box entry subcircuit for sky130_fd_sc_hd__o31ai_1 abstract view
.subckt sky130_fd_sc_hd__o31ai_1 A1 A2 A3 B1 VGND VNB VPB VPWR Y
.ends

* Black-box entry subcircuit for sky130_fd_sc_hd__nor3b_2 abstract view
.subckt sky130_fd_sc_hd__nor3b_2 A B C_N VGND VNB VPB VPWR Y
.ends

* Black-box entry subcircuit for sky130_fd_sc_hd__or3b_1 abstract view
.subckt sky130_fd_sc_hd__or3b_1 A B C_N VGND VNB VPB VPWR X
.ends

* Black-box entry subcircuit for sky130_fd_sc_hd__nor4_1 abstract view
.subckt sky130_fd_sc_hd__nor4_1 A B C D VGND VNB VPB VPWR Y
.ends

* Black-box entry subcircuit for sky130_fd_sc_hd__or2_2 abstract view
.subckt sky130_fd_sc_hd__or2_2 A B VGND VNB VPB VPWR X
.ends

* Black-box entry subcircuit for sky130_fd_sc_hd__or3_4 abstract view
.subckt sky130_fd_sc_hd__or3_4 A B C VGND VNB VPB VPWR X
.ends

* Black-box entry subcircuit for sky130_fd_sc_hd__and3b_2 abstract view
.subckt sky130_fd_sc_hd__and3b_2 A_N B C VGND VNB VPB VPWR X
.ends

* Black-box entry subcircuit for sky130_fd_sc_hd__clkinv_2 abstract view
.subckt sky130_fd_sc_hd__clkinv_2 A VGND VNB VPB VPWR Y
.ends

.subckt SPI clock io_spi_clk io_spi_cs io_spi_intr io_spi_miso io_spi_mosi io_spi_select
+ io_wbs_ack_o io_wbs_data_o[0] io_wbs_data_o[10] io_wbs_data_o[11] io_wbs_data_o[12]
+ io_wbs_data_o[13] io_wbs_data_o[14] io_wbs_data_o[15] io_wbs_data_o[16] io_wbs_data_o[17]
+ io_wbs_data_o[18] io_wbs_data_o[19] io_wbs_data_o[1] io_wbs_data_o[20] io_wbs_data_o[21]
+ io_wbs_data_o[22] io_wbs_data_o[23] io_wbs_data_o[24] io_wbs_data_o[25] io_wbs_data_o[26]
+ io_wbs_data_o[27] io_wbs_data_o[28] io_wbs_data_o[29] io_wbs_data_o[2] io_wbs_data_o[30]
+ io_wbs_data_o[31] io_wbs_data_o[3] io_wbs_data_o[4] io_wbs_data_o[5] io_wbs_data_o[6]
+ io_wbs_data_o[7] io_wbs_data_o[8] io_wbs_data_o[9] io_wbs_m2s_addr[0] io_wbs_m2s_addr[10]
+ io_wbs_m2s_addr[11] io_wbs_m2s_addr[12] io_wbs_m2s_addr[13] io_wbs_m2s_addr[14]
+ io_wbs_m2s_addr[15] io_wbs_m2s_addr[1] io_wbs_m2s_addr[2] io_wbs_m2s_addr[3] io_wbs_m2s_addr[4]
+ io_wbs_m2s_addr[5] io_wbs_m2s_addr[6] io_wbs_m2s_addr[7] io_wbs_m2s_addr[8] io_wbs_m2s_addr[9]
+ io_wbs_m2s_data[0] io_wbs_m2s_data[10] io_wbs_m2s_data[11] io_wbs_m2s_data[12] io_wbs_m2s_data[13]
+ io_wbs_m2s_data[14] io_wbs_m2s_data[15] io_wbs_m2s_data[16] io_wbs_m2s_data[17]
+ io_wbs_m2s_data[18] io_wbs_m2s_data[19] io_wbs_m2s_data[1] io_wbs_m2s_data[20] io_wbs_m2s_data[21]
+ io_wbs_m2s_data[22] io_wbs_m2s_data[23] io_wbs_m2s_data[24] io_wbs_m2s_data[25]
+ io_wbs_m2s_data[26] io_wbs_m2s_data[27] io_wbs_m2s_data[28] io_wbs_m2s_data[29]
+ io_wbs_m2s_data[2] io_wbs_m2s_data[30] io_wbs_m2s_data[31] io_wbs_m2s_data[3] io_wbs_m2s_data[4]
+ io_wbs_m2s_data[5] io_wbs_m2s_data[6] io_wbs_m2s_data[7] io_wbs_m2s_data[8] io_wbs_m2s_data[9]
+ io_wbs_m2s_stb io_wbs_m2s_we reset vccd1 vssd1
XFILLER_22_188 vssd1 vssd1 vccd1 vccd1 sky130_fd_sc_hd__fill_2
XFILLER_22_166 vssd1 vssd1 vccd1 vccd1 sky130_fd_sc_hd__fill_2
XFILLER_22_155 vssd1 vssd1 vccd1 vccd1 sky130_fd_sc_hd__fill_2
XFILLER_22_100 vssd1 vssd1 vccd1 vccd1 sky130_fd_sc_hd__decap_6
XFILLER_26_85 vssd1 vssd1 vccd1 vccd1 sky130_fd_sc_hd__fill_2
X_501_ _668_/Q _669_/Q _508_/S vssd1 vssd1 vccd1 vccd1 _501_/X sky130_fd_sc_hd__mux2_1
XFILLER_13_188 vssd1 vssd1 vccd1 vccd1 sky130_fd_sc_hd__fill_2
XFILLER_13_166 vssd1 vssd1 vccd1 vccd1 sky130_fd_sc_hd__fill_2
XFILLER_9_159 vssd1 vssd1 vccd1 vccd1 sky130_fd_sc_hd__fill_2
X_363_ _636_/Q _363_/B vssd1 vssd1 vccd1 vccd1 _363_/X sky130_fd_sc_hd__and2_1
X_432_ _432_/A vssd1 vssd1 vccd1 vccd1 _649_/D sky130_fd_sc_hd__clkbuf_1
XFILLER_12_21 vssd1 vssd1 vccd1 vccd1 sky130_fd_sc_hd__fill_2
X_415_ _424_/A _415_/B vssd1 vssd1 vccd1 vccd1 _416_/A sky130_fd_sc_hd__and2_1
XFILLER_10_114 vssd1 vssd1 vccd1 vccd1 sky130_fd_sc_hd__fill_2
X_346_ _346_/A vssd1 vssd1 vccd1 vccd1 _346_/X sky130_fd_sc_hd__clkbuf_2
XFILLER_23_75 vssd1 vssd1 vccd1 vccd1 sky130_fd_sc_hd__decap_4
XFILLER_23_64 vssd1 vssd1 vccd1 vccd1 sky130_fd_sc_hd__fill_2
XFILLER_9_55 vssd1 vssd1 vccd1 vccd1 sky130_fd_sc_hd__fill_1
XFILLER_9_44 vssd1 vssd1 vccd1 vccd1 sky130_fd_sc_hd__fill_2
XFILLER_9_22 vssd1 vssd1 vccd1 vccd1 sky130_fd_sc_hd__decap_4
X_329_ _329_/A _329_/B _329_/C vssd1 vssd1 vccd1 vccd1 _353_/C sky130_fd_sc_hd__nor3_1
XFILLER_0_68 vssd1 vssd1 vccd1 vccd1 sky130_fd_sc_hd__decap_4
XFILLER_0_57 vssd1 vssd1 vccd1 vccd1 sky130_fd_sc_hd__fill_2
XFILLER_0_13 vssd1 vssd1 vccd1 vccd1 sky130_fd_sc_hd__fill_2
XFILLER_2_176 vssd1 vssd1 vccd1 vccd1 sky130_fd_sc_hd__decap_4
X_680_ _688_/CLK _680_/D vssd1 vssd1 vccd1 vccd1 _680_/Q sky130_fd_sc_hd__dfxtp_1
XANTENNA_input18_A io_wbs_m2s_data[7] vssd1 vssd1 vccd1 vccd1 sky130_fd_sc_hd__diode_2
X_594_ _694_/Q _594_/B vssd1 vssd1 vccd1 vccd1 _595_/C sky130_fd_sc_hd__nand2_1
XFILLER_20_32 vssd1 vssd1 vccd1 vccd1 sky130_fd_sc_hd__fill_2
X_663_ _666_/CLK _663_/D vssd1 vssd1 vccd1 vccd1 _663_/Q sky130_fd_sc_hd__dfxtp_1
XFILLER_13_3 vssd1 vssd1 vccd1 vccd1 sky130_fd_sc_hd__decap_8
XFILLER_17_109 vssd1 vssd1 vccd1 vccd1 sky130_fd_sc_hd__decap_3
XFILLER_15_98 vssd1 vssd1 vccd1 vccd1 sky130_fd_sc_hd__decap_3
XFILLER_15_76 vssd1 vssd1 vccd1 vccd1 sky130_fd_sc_hd__decap_12
XFILLER_15_65 vssd1 vssd1 vccd1 vccd1 sky130_fd_sc_hd__fill_2
X_577_ _577_/A _577_/B _577_/C vssd1 vssd1 vccd1 vccd1 _582_/B sky130_fd_sc_hd__and3_1
Xoutput31 _636_/Q vssd1 vssd1 vccd1 vccd1 io_wbs_data_o[4] sky130_fd_sc_hd__buf_2
X_646_ _675_/CLK _646_/D vssd1 vssd1 vccd1 vccd1 _646_/Q sky130_fd_sc_hd__dfxtp_1
XTAP_145 vssd1 vccd1 sky130_fd_sc_hd__tapvpwrvgnd_1
XTAP_134 vssd1 vccd1 sky130_fd_sc_hd__tapvpwrvgnd_1
XFILLER_22_178 vssd1 vssd1 vccd1 vccd1 sky130_fd_sc_hd__fill_2
XFILLER_22_134 vssd1 vssd1 vccd1 vccd1 sky130_fd_sc_hd__decap_6
XFILLER_22_112 vssd1 vssd1 vccd1 vccd1 sky130_fd_sc_hd__fill_2
XTAP_123 vssd1 vccd1 sky130_fd_sc_hd__tapvpwrvgnd_1
XTAP_112 vssd1 vccd1 sky130_fd_sc_hd__tapvpwrvgnd_1
XTAP_101 vssd1 vccd1 sky130_fd_sc_hd__tapvpwrvgnd_1
X_500_ _651_/Q _506_/B _499_/X _374_/X vssd1 vssd1 vccd1 vccd1 _668_/D sky130_fd_sc_hd__o211a_1
X_362_ _358_/X _361_/X _704_/D vssd1 vssd1 vccd1 vccd1 _635_/D sky130_fd_sc_hd__o21a_1
XFILLER_13_145 vssd1 vssd1 vccd1 vccd1 sky130_fd_sc_hd__fill_2
XFILLER_13_134 vssd1 vssd1 vccd1 vccd1 sky130_fd_sc_hd__fill_2
XFILLER_3_57 vssd1 vssd1 vccd1 vccd1 sky130_fd_sc_hd__decap_4
X_431_ _450_/A _431_/B vssd1 vssd1 vccd1 vccd1 _432_/A sky130_fd_sc_hd__and2_1
X_629_ _629_/A vssd1 vssd1 vccd1 vccd1 _706_/D sky130_fd_sc_hd__clkbuf_1
XFILLER_10_159 vssd1 vssd1 vccd1 vccd1 sky130_fd_sc_hd__fill_1
XFILLER_5_5 vssd1 vssd1 vccd1 vccd1 sky130_fd_sc_hd__fill_2
XFILLER_6_119 vssd1 vssd1 vccd1 vccd1 sky130_fd_sc_hd__fill_2
X_414_ _644_/Q _661_/Q _423_/S vssd1 vssd1 vccd1 vccd1 _415_/B sky130_fd_sc_hd__mux2_1
X_345_ _465_/B _465_/A vssd1 vssd1 vccd1 vccd1 _346_/A sky130_fd_sc_hd__and2b_1
XFILLER_5_163 vssd1 vssd1 vccd1 vccd1 sky130_fd_sc_hd__decap_4
XFILLER_5_185 vssd1 vssd1 vccd1 vccd1 sky130_fd_sc_hd__decap_4
XFILLER_23_43 vssd1 vssd1 vccd1 vccd1 sky130_fd_sc_hd__fill_2
XFILLER_9_78 vssd1 vssd1 vccd1 vccd1 sky130_fd_sc_hd__fill_2
XFILLER_2_155 vssd1 vssd1 vccd1 vccd1 sky130_fd_sc_hd__decap_4
X_328_ _328_/A _328_/B vssd1 vssd1 vccd1 vccd1 _353_/B sky130_fd_sc_hd__nor2_2
XFILLER_18_54 vssd1 vssd1 vccd1 vccd1 sky130_fd_sc_hd__fill_2
XFILLER_20_88 vssd1 vssd1 vccd1 vccd1 sky130_fd_sc_hd__decap_6
XFILLER_20_55 vssd1 vssd1 vccd1 vccd1 sky130_fd_sc_hd__decap_6
X_662_ _666_/CLK _662_/D vssd1 vssd1 vccd1 vccd1 _662_/Q sky130_fd_sc_hd__dfxtp_1
X_593_ _694_/Q _594_/B vssd1 vssd1 vccd1 vccd1 _595_/B sky130_fd_sc_hd__or2_1
XFILLER_6_79 vssd1 vssd1 vccd1 vccd1 sky130_fd_sc_hd__decap_4
XFILLER_25_132 vssd1 vssd1 vccd1 vccd1 sky130_fd_sc_hd__fill_2
XFILLER_25_110 vssd1 vssd1 vccd1 vccd1 sky130_fd_sc_hd__fill_2
X_576_ _576_/A vssd1 vssd1 vccd1 vccd1 _689_/D sky130_fd_sc_hd__clkbuf_1
Xoutput32 _637_/Q vssd1 vssd1 vccd1 vccd1 io_wbs_data_o[5] sky130_fd_sc_hd__buf_2
XFILLER_16_176 vssd1 vssd1 vccd1 vccd1 sky130_fd_sc_hd__fill_1
XFILLER_15_88 vssd1 vssd1 vccd1 vccd1 sky130_fd_sc_hd__fill_1
X_645_ _666_/CLK _645_/D vssd1 vssd1 vccd1 vccd1 _645_/Q sky130_fd_sc_hd__dfxtp_1
X_724__51 vssd1 vssd1 vccd1 vccd1 _724__51/HI io_wbs_data_o[24] sky130_fd_sc_hd__conb_1
XTAP_135 vssd1 vccd1 sky130_fd_sc_hd__tapvpwrvgnd_1
XTAP_124 vssd1 vccd1 sky130_fd_sc_hd__tapvpwrvgnd_1
XTAP_113 vssd1 vccd1 sky130_fd_sc_hd__tapvpwrvgnd_1
XTAP_102 vssd1 vccd1 sky130_fd_sc_hd__tapvpwrvgnd_1
X_361_ _646_/Q _333_/X _360_/X _346_/A vssd1 vssd1 vccd1 vccd1 _361_/X sky130_fd_sc_hd__o211a_1
X_430_ _649_/Q _666_/Q _686_/Q vssd1 vssd1 vccd1 vccd1 _431_/B sky130_fd_sc_hd__mux2_1
X_559_ _689_/Q vssd1 vssd1 vccd1 vccd1 _577_/B sky130_fd_sc_hd__dlymetal6s2s_1
X_628_ _628_/A _628_/B vssd1 vssd1 vccd1 vccd1 _629_/A sky130_fd_sc_hd__and2_1
XFILLER_3_14 vssd1 vssd1 vccd1 vccd1 sky130_fd_sc_hd__fill_2
XFILLER_3_36 vssd1 vssd1 vccd1 vccd1 sky130_fd_sc_hd__fill_2
XFILLER_12_67 vssd1 vssd1 vccd1 vccd1 sky130_fd_sc_hd__fill_1
XFILLER_10_149 vssd1 vssd1 vccd1 vccd1 sky130_fd_sc_hd__fill_2
XFILLER_10_138 vssd1 vssd1 vccd1 vccd1 sky130_fd_sc_hd__fill_2
X_413_ _413_/A vssd1 vssd1 vccd1 vccd1 _643_/D sky130_fd_sc_hd__clkbuf_1
X_344_ _651_/Q _336_/X _338_/X _343_/X vssd1 vssd1 vccd1 vccd1 _344_/X sky130_fd_sc_hd__a211o_1
XFILLER_5_142 vssd1 vssd1 vccd1 vccd1 sky130_fd_sc_hd__fill_2
XFILLER_5_153 vssd1 vssd1 vccd1 vccd1 sky130_fd_sc_hd__fill_2
XFILLER_23_88 vssd1 vssd1 vccd1 vccd1 sky130_fd_sc_hd__fill_2
XFILLER_23_55 vssd1 vssd1 vccd1 vccd1 sky130_fd_sc_hd__fill_1
XFILLER_0_26 vssd1 vssd1 vccd1 vccd1 sky130_fd_sc_hd__fill_2
XFILLER_2_123 vssd1 vssd1 vccd1 vccd1 sky130_fd_sc_hd__decap_4
XFILLER_3_3 vssd1 vssd1 vccd1 vccd1 sky130_fd_sc_hd__fill_1
XFILLER_9_57 vssd1 vssd1 vccd1 vccd1 sky130_fd_sc_hd__decap_3
X_327_ _632_/Q _363_/B vssd1 vssd1 vccd1 vccd1 _327_/X sky130_fd_sc_hd__and2_1
XFILLER_18_22 vssd1 vssd1 vccd1 vccd1 sky130_fd_sc_hd__decap_6
XFILLER_20_67 vssd1 vssd1 vccd1 vccd1 sky130_fd_sc_hd__decap_6
X_592_ _592_/A vssd1 vssd1 vccd1 vccd1 _693_/D sky130_fd_sc_hd__clkbuf_1
X_661_ _666_/CLK _661_/D vssd1 vssd1 vccd1 vccd1 _661_/Q sky130_fd_sc_hd__dfxtp_1
Xoutput33 _638_/Q vssd1 vssd1 vccd1 vccd1 io_wbs_data_o[6] sky130_fd_sc_hd__buf_2
Xoutput22 _640_/Q vssd1 vssd1 vccd1 vccd1 io_spi_clk sky130_fd_sc_hd__buf_2
X_575_ _595_/A _575_/B vssd1 vssd1 vccd1 vccd1 _576_/A sky130_fd_sc_hd__and2_1
XFILLER_25_166 vssd1 vssd1 vccd1 vccd1 sky130_fd_sc_hd__fill_2
XFILLER_16_155 vssd1 vssd1 vccd1 vccd1 sky130_fd_sc_hd__fill_1
XFILLER_15_23 vssd1 vssd1 vccd1 vccd1 sky130_fd_sc_hd__decap_6
X_644_ _666_/CLK _644_/D vssd1 vssd1 vccd1 vccd1 _644_/Q sky130_fd_sc_hd__dfxtp_1
XTAP_136 vssd1 vccd1 sky130_fd_sc_hd__tapvpwrvgnd_1
XFILLER_22_125 vssd1 vssd1 vccd1 vccd1 sky130_fd_sc_hd__fill_1
XTAP_125 vssd1 vccd1 sky130_fd_sc_hd__tapvpwrvgnd_1
XTAP_114 vssd1 vccd1 sky130_fd_sc_hd__tapvpwrvgnd_1
XFILLER_16_188 vssd1 vssd1 vccd1 vccd1 sky130_fd_sc_hd__fill_2
XTAP_103 vssd1 vccd1 sky130_fd_sc_hd__tapvpwrvgnd_1
XFILLER_26_77 vssd1 vssd1 vccd1 vccd1 sky130_fd_sc_hd__decap_3
XFILLER_9_129 vssd1 vssd1 vccd1 vccd1 sky130_fd_sc_hd__decap_4
X_360_ _654_/Q _336_/X _359_/X _338_/X vssd1 vssd1 vccd1 vccd1 _360_/X sky130_fd_sc_hd__a211o_1
X_558_ _697_/Q _696_/Q _698_/Q vssd1 vssd1 vccd1 vccd1 _558_/X sky130_fd_sc_hd__and3b_1
X_627_ _627_/A vssd1 vssd1 vccd1 vccd1 _705_/D sky130_fd_sc_hd__clkbuf_1
X_489_ _664_/Q _665_/Q _496_/S vssd1 vssd1 vccd1 vccd1 _490_/B sky130_fd_sc_hd__mux2_1
XFILLER_12_57 vssd1 vssd1 vccd1 vccd1 sky130_fd_sc_hd__fill_2
X_412_ _424_/A _412_/B vssd1 vssd1 vccd1 vccd1 _413_/A sky130_fd_sc_hd__and2_1
X_343_ _659_/Q _465_/C _342_/X _676_/Q vssd1 vssd1 vccd1 vccd1 _343_/X sky130_fd_sc_hd__a22o_1
XFILLER_0_38 vssd1 vssd1 vccd1 vccd1 sky130_fd_sc_hd__fill_1
Xclkbuf_3_6_0_clock clkbuf_3_7_0_clock/A vssd1 vssd1 vccd1 vccd1 _691_/CLK sky130_fd_sc_hd__clkbuf_2
X_326_ _379_/B vssd1 vssd1 vccd1 vccd1 _363_/B sky130_fd_sc_hd__clkbuf_2
XFILLER_18_67 vssd1 vssd1 vccd1 vccd1 sky130_fd_sc_hd__fill_2
XFILLER_18_45 vssd1 vssd1 vccd1 vccd1 sky130_fd_sc_hd__fill_2
X_591_ _594_/B _591_/B _591_/C vssd1 vssd1 vccd1 vccd1 _592_/A sky130_fd_sc_hd__and3b_1
X_660_ _707_/CLK _660_/D vssd1 vssd1 vccd1 vccd1 _660_/Q sky130_fd_sc_hd__dfxtp_1
Xclkbuf_2_3_0_clock clkbuf_2_3_0_clock/A vssd1 vssd1 vccd1 vccd1 clkbuf_3_7_0_clock/A
+ sky130_fd_sc_hd__clkbuf_2
XFILLER_25_123 vssd1 vssd1 vccd1 vccd1 sky130_fd_sc_hd__fill_2
XFILLER_25_101 vssd1 vssd1 vccd1 vccd1 sky130_fd_sc_hd__fill_2
XFILLER_15_57 vssd1 vssd1 vccd1 vccd1 sky130_fd_sc_hd__decap_4
XFILLER_15_46 vssd1 vssd1 vccd1 vccd1 sky130_fd_sc_hd__fill_2
Xoutput23 _315_/Y vssd1 vssd1 vccd1 vccd1 io_spi_cs sky130_fd_sc_hd__buf_2
Xoutput34 _639_/Q vssd1 vssd1 vccd1 vccd1 io_wbs_data_o[7] sky130_fd_sc_hd__buf_2
X_574_ _577_/B _577_/C vssd1 vssd1 vccd1 vccd1 _575_/B sky130_fd_sc_hd__xor2_1
XTAP_137 vssd1 vccd1 sky130_fd_sc_hd__tapvpwrvgnd_1
XTAP_126 vssd1 vccd1 sky130_fd_sc_hd__tapvpwrvgnd_1
XTAP_115 vssd1 vccd1 sky130_fd_sc_hd__tapvpwrvgnd_1
XFILLER_16_101 vssd1 vssd1 vccd1 vccd1 sky130_fd_sc_hd__decap_4
XTAP_104 vssd1 vccd1 sky130_fd_sc_hd__tapvpwrvgnd_1
X_643_ _707_/CLK _643_/D vssd1 vssd1 vccd1 vccd1 _643_/Q sky130_fd_sc_hd__dfxtp_1
XANTENNA_input16_A io_wbs_m2s_data[5] vssd1 vssd1 vccd1 vccd1 sky130_fd_sc_hd__diode_2
X_715__42 vssd1 vssd1 vccd1 vccd1 _715__42/HI io_wbs_data_o[15] sky130_fd_sc_hd__conb_1
XFILLER_26_45 vssd1 vssd1 vccd1 vccd1 sky130_fd_sc_hd__fill_2
XANTENNA_input8_A io_wbs_m2s_addr[5] vssd1 vssd1 vccd1 vccd1 sky130_fd_sc_hd__diode_2
X_626_ _626_/A _628_/B vssd1 vssd1 vccd1 vccd1 _627_/A sky130_fd_sc_hd__and2_1
X_557_ _683_/Q _682_/Q _374_/X vssd1 vssd1 vccd1 vccd1 _688_/D sky130_fd_sc_hd__o21a_1
X_488_ _488_/A vssd1 vssd1 vccd1 vccd1 _664_/D sky130_fd_sc_hd__clkbuf_1
Xclkbuf_0_clock clock vssd1 vssd1 vccd1 vccd1 clkbuf_0_clock/X sky130_fd_sc_hd__clkbuf_16
Xclkbuf_1_0_0_clock clkbuf_0_clock/X vssd1 vssd1 vccd1 vccd1 clkbuf_2_1_0_clock/A
+ sky130_fd_sc_hd__clkbuf_2
XFILLER_8_185 vssd1 vssd1 vccd1 vccd1 sky130_fd_sc_hd__decap_4
XFILLER_8_174 vssd1 vssd1 vccd1 vccd1 sky130_fd_sc_hd__fill_2
XFILLER_8_163 vssd1 vssd1 vccd1 vccd1 sky130_fd_sc_hd__fill_2
XANTENNA__329__B _329_/B vssd1 vssd1 vccd1 vccd1 sky130_fd_sc_hd__diode_2
XFILLER_12_47 vssd1 vssd1 vccd1 vccd1 sky130_fd_sc_hd__decap_6
X_411_ _643_/Q _660_/Q _423_/S vssd1 vssd1 vccd1 vccd1 _412_/B sky130_fd_sc_hd__mux2_1
X_342_ _521_/C vssd1 vssd1 vccd1 vccd1 _342_/X sky130_fd_sc_hd__dlymetal6s2s_1
X_609_ _630_/B _609_/B _609_/C vssd1 vssd1 vccd1 vccd1 _610_/A sky130_fd_sc_hd__and3_1
Xclkbuf_3_2_0_clock clkbuf_3_3_0_clock/A vssd1 vssd1 vccd1 vccd1 _707_/CLK sky130_fd_sc_hd__clkbuf_2
XFILLER_23_79 vssd1 vssd1 vccd1 vccd1 sky130_fd_sc_hd__fill_1
XFILLER_23_57 vssd1 vssd1 vccd1 vccd1 sky130_fd_sc_hd__decap_4
XFILLER_23_35 vssd1 vssd1 vccd1 vccd1 sky130_fd_sc_hd__fill_2
XFILLER_23_24 vssd1 vssd1 vccd1 vccd1 sky130_fd_sc_hd__decap_4
XFILLER_2_169 vssd1 vssd1 vccd1 vccd1 sky130_fd_sc_hd__fill_2
XFILLER_4_81 vssd1 vssd1 vccd1 vccd1 sky130_fd_sc_hd__decap_3
XFILLER_9_37 vssd1 vssd1 vccd1 vccd1 sky130_fd_sc_hd__fill_2
XFILLER_9_26 vssd1 vssd1 vccd1 vccd1 sky130_fd_sc_hd__fill_1
X_325_ _465_/B _465_/A vssd1 vssd1 vccd1 vccd1 _379_/B sky130_fd_sc_hd__or2b_1
X_590_ _589_/B _589_/C _693_/Q vssd1 vssd1 vccd1 vccd1 _591_/C sky130_fd_sc_hd__a21o_1
XFILLER_19_154 vssd1 vssd1 vccd1 vccd1 sky130_fd_sc_hd__decap_4
XFILLER_19_143 vssd1 vssd1 vccd1 vccd1 sky130_fd_sc_hd__decap_3
XFILLER_25_179 vssd1 vssd1 vccd1 vccd1 sky130_fd_sc_hd__fill_2
Xoutput24 _322_/X vssd1 vssd1 vccd1 vccd1 io_spi_intr sky130_fd_sc_hd__buf_2
XTAP_138 vssd1 vccd1 sky130_fd_sc_hd__tapvpwrvgnd_1
XTAP_127 vssd1 vccd1 sky130_fd_sc_hd__tapvpwrvgnd_1
X_573_ _573_/A _573_/B vssd1 vssd1 vccd1 vccd1 _577_/C sky130_fd_sc_hd__or2_1
XTAP_116 vssd1 vccd1 sky130_fd_sc_hd__tapvpwrvgnd_1
XFILLER_16_179 vssd1 vssd1 vccd1 vccd1 sky130_fd_sc_hd__fill_2
XFILLER_16_135 vssd1 vssd1 vccd1 vccd1 sky130_fd_sc_hd__decap_4
XTAP_105 vssd1 vccd1 sky130_fd_sc_hd__tapvpwrvgnd_1
X_642_ _675_/CLK _642_/D vssd1 vssd1 vccd1 vccd1 _642_/Q sky130_fd_sc_hd__dfxtp_1
X_625_ _703_/Q _620_/X _624_/Y vssd1 vssd1 vccd1 vccd1 _703_/D sky130_fd_sc_hd__o21a_1
X_730__57 vssd1 vssd1 vccd1 vccd1 _730__57/HI io_wbs_data_o[30] sky130_fd_sc_hd__conb_1
XFILLER_9_109 vssd1 vssd1 vccd1 vccd1 sky130_fd_sc_hd__decap_3
X_556_ _695_/Q _612_/C _495_/A vssd1 vssd1 vccd1 vccd1 _687_/D sky130_fd_sc_hd__o21ai_1
XFILLER_16_90 vssd1 vssd1 vccd1 vccd1 sky130_fd_sc_hd__fill_2
X_487_ _493_/A _487_/B vssd1 vssd1 vccd1 vccd1 _488_/A sky130_fd_sc_hd__and2_1
X_410_ _686_/Q vssd1 vssd1 vccd1 vccd1 _423_/S sky130_fd_sc_hd__clkbuf_2
XFILLER_12_26 vssd1 vssd1 vccd1 vccd1 sky130_fd_sc_hd__fill_2
XFILLER_10_108 vssd1 vssd1 vccd1 vccd1 sky130_fd_sc_hd__fill_2
X_341_ _353_/A _353_/B _353_/C _341_/D vssd1 vssd1 vccd1 vccd1 _521_/C sky130_fd_sc_hd__and4b_1
X_608_ _506_/B _598_/B _609_/C _544_/A vssd1 vssd1 vccd1 vccd1 _697_/D sky130_fd_sc_hd__a31oi_1
X_539_ _552_/A _539_/B vssd1 vssd1 vccd1 vccd1 _540_/A sky130_fd_sc_hd__or2_1
XFILLER_5_167 vssd1 vssd1 vccd1 vccd1 sky130_fd_sc_hd__fill_1
XFILLER_5_189 vssd1 vssd1 vccd1 vccd1 sky130_fd_sc_hd__fill_1
XFILLER_23_69 vssd1 vssd1 vccd1 vccd1 sky130_fd_sc_hd__fill_2
XFILLER_4_93 vssd1 vssd1 vccd1 vccd1 sky130_fd_sc_hd__decap_8
X_324_ _521_/A vssd1 vssd1 vccd1 vccd1 _465_/A sky130_fd_sc_hd__dlymetal6s2s_1
XFILLER_9_49 vssd1 vssd1 vccd1 vccd1 sky130_fd_sc_hd__decap_6
XFILLER_0_29 vssd1 vssd1 vccd1 vccd1 sky130_fd_sc_hd__fill_2
XFILLER_0_18 vssd1 vssd1 vccd1 vccd1 sky130_fd_sc_hd__decap_4
XFILLER_20_48 vssd1 vssd1 vccd1 vccd1 sky130_fd_sc_hd__fill_2
XFILLER_20_37 vssd1 vssd1 vccd1 vccd1 sky130_fd_sc_hd__fill_2
XFILLER_20_26 vssd1 vssd1 vccd1 vccd1 sky130_fd_sc_hd__fill_2
XFILLER_19_188 vssd1 vssd1 vccd1 vccd1 sky130_fd_sc_hd__fill_2
XFILLER_19_166 vssd1 vssd1 vccd1 vccd1 sky130_fd_sc_hd__fill_2
XFILLER_19_122 vssd1 vssd1 vccd1 vccd1 sky130_fd_sc_hd__decap_4
XFILLER_19_100 vssd1 vssd1 vccd1 vccd1 sky130_fd_sc_hd__fill_1
XFILLER_19_90 vssd1 vssd1 vccd1 vccd1 sky130_fd_sc_hd__fill_2
XFILLER_20_9 vssd1 vssd1 vccd1 vccd1 sky130_fd_sc_hd__fill_1
XFILLER_6_39 vssd1 vssd1 vccd1 vccd1 sky130_fd_sc_hd__decap_6
Xoutput25 _641_/Q vssd1 vssd1 vccd1 vccd1 io_spi_mosi sky130_fd_sc_hd__buf_2
X_572_ _394_/A _558_/X _470_/A _470_/B vssd1 vssd1 vccd1 vccd1 _573_/B sky130_fd_sc_hd__o211a_1
X_641_ _691_/CLK _641_/D vssd1 vssd1 vccd1 vccd1 _641_/Q sky130_fd_sc_hd__dfxtp_1
XFILLER_16_114 vssd1 vssd1 vccd1 vccd1 sky130_fd_sc_hd__decap_6
XTAP_139 vssd1 vccd1 sky130_fd_sc_hd__tapvpwrvgnd_1
XTAP_128 vssd1 vccd1 sky130_fd_sc_hd__tapvpwrvgnd_1
XFILLER_22_117 vssd1 vssd1 vccd1 vccd1 sky130_fd_sc_hd__decap_8
XFILLER_22_106 vssd1 vssd1 vccd1 vccd1 sky130_fd_sc_hd__fill_1
XTAP_117 vssd1 vccd1 sky130_fd_sc_hd__tapvpwrvgnd_1
XTAP_106 vssd1 vccd1 sky130_fd_sc_hd__tapvpwrvgnd_1
XPHY_0 vssd1 vssd1 vccd1 vccd1 sky130_fd_sc_hd__decap_3
XFILLER_7_71 vssd1 vssd1 vccd1 vccd1 sky130_fd_sc_hd__fill_2
XFILLER_26_69 vssd1 vssd1 vccd1 vccd1 sky130_fd_sc_hd__fill_2
XFILLER_3_18 vssd1 vssd1 vccd1 vccd1 sky130_fd_sc_hd__fill_2
XFILLER_3_29 vssd1 vssd1 vccd1 vccd1 sky130_fd_sc_hd__fill_2
X_624_ _703_/Q _620_/X _622_/C vssd1 vssd1 vccd1 vccd1 _624_/Y sky130_fd_sc_hd__a21boi_1
X_555_ _630_/A _628_/A _626_/A vssd1 vssd1 vccd1 vccd1 _612_/C sky130_fd_sc_hd__or3_1
XANTENNA_input21_A reset vssd1 vssd1 vccd1 vccd1 sky130_fd_sc_hd__diode_2
XFILLER_12_150 vssd1 vssd1 vccd1 vccd1 sky130_fd_sc_hd__decap_4
X_486_ _663_/Q _664_/Q _486_/S vssd1 vssd1 vccd1 vccd1 _487_/B sky130_fd_sc_hd__mux2_1
X_607_ _640_/Q _604_/A _569_/B _601_/A vssd1 vssd1 vccd1 vccd1 _609_/C sky130_fd_sc_hd__a31o_1
X_538_ _681_/Q _538_/A1 _538_/S vssd1 vssd1 vccd1 vccd1 _539_/B sky130_fd_sc_hd__mux2_1
X_340_ _340_/A _340_/B _340_/C vssd1 vssd1 vccd1 vccd1 _341_/D sky130_fd_sc_hd__and3_1
X_469_ _552_/C vssd1 vssd1 vccd1 vccd1 _601_/A sky130_fd_sc_hd__inv_2
X_323_ _521_/B vssd1 vssd1 vccd1 vccd1 _465_/B sky130_fd_sc_hd__dlymetal6s2s_1
XFILLER_2_116 vssd1 vssd1 vccd1 vccd1 sky130_fd_sc_hd__fill_2
XFILLER_2_127 vssd1 vssd1 vccd1 vccd1 sky130_fd_sc_hd__fill_1
XFILLER_2_138 vssd1 vssd1 vccd1 vccd1 sky130_fd_sc_hd__fill_2
XFILLER_3_7 vssd1 vssd1 vccd1 vccd1 sky130_fd_sc_hd__fill_2
XFILLER_18_59 vssd1 vssd1 vccd1 vccd1 sky130_fd_sc_hd__decap_3
XFILLER_1_73 vssd1 vssd1 vccd1 vccd1 sky130_fd_sc_hd__fill_2
XFILLER_19_178 vssd1 vssd1 vccd1 vccd1 sky130_fd_sc_hd__decap_6
XFILLER_6_29 vssd1 vssd1 vccd1 vccd1 sky130_fd_sc_hd__fill_1
X_640_ _703_/CLK _640_/D vssd1 vssd1 vccd1 vccd1 _640_/Q sky130_fd_sc_hd__dfxtp_1
X_571_ _591_/B vssd1 vssd1 vccd1 vccd1 _595_/A sky130_fd_sc_hd__dlymetal6s2s_1
Xoutput26 _675_/Q vssd1 vssd1 vccd1 vccd1 io_wbs_ack_o sky130_fd_sc_hd__buf_2
XTAP_129 vssd1 vccd1 sky130_fd_sc_hd__tapvpwrvgnd_1
XTAP_118 vssd1 vccd1 sky130_fd_sc_hd__tapvpwrvgnd_1
XTAP_107 vssd1 vccd1 sky130_fd_sc_hd__tapvpwrvgnd_1
XPHY_1 vssd1 vssd1 vccd1 vccd1 sky130_fd_sc_hd__decap_3
XFILLER_26_26 vssd1 vssd1 vccd1 vccd1 sky130_fd_sc_hd__fill_2
XFILLER_26_15 vssd1 vssd1 vccd1 vccd1 sky130_fd_sc_hd__decap_4
XFILLER_13_129 vssd1 vssd1 vccd1 vccd1 sky130_fd_sc_hd__fill_2
XFILLER_7_83 vssd1 vssd1 vccd1 vccd1 sky130_fd_sc_hd__fill_2
XFILLER_7_94 vssd1 vssd1 vccd1 vccd1 sky130_fd_sc_hd__fill_2
X_623_ _623_/A vssd1 vssd1 vccd1 vccd1 _702_/D sky130_fd_sc_hd__clkbuf_1
XANTENNA_input14_A io_wbs_m2s_data[3] vssd1 vssd1 vccd1 vccd1 sky130_fd_sc_hd__diode_2
X_554_ _554_/A vssd1 vssd1 vccd1 vccd1 _686_/D sky130_fd_sc_hd__clkbuf_1
XFILLER_12_162 vssd1 vssd1 vccd1 vccd1 sky130_fd_sc_hd__fill_2
X_485_ _485_/A vssd1 vssd1 vccd1 vccd1 _663_/D sky130_fd_sc_hd__clkbuf_1
X_721__48 vssd1 vssd1 vccd1 vccd1 _721__48/HI io_wbs_data_o[21] sky130_fd_sc_hd__conb_1
XANTENNA_input6_A io_wbs_m2s_addr[3] vssd1 vssd1 vccd1 vccd1 sky130_fd_sc_hd__diode_2
XFILLER_5_136 vssd1 vssd1 vccd1 vccd1 sky130_fd_sc_hd__fill_2
X_399_ _698_/Q vssd1 vssd1 vccd1 vccd1 _630_/A sky130_fd_sc_hd__clkbuf_1
X_606_ _606_/A vssd1 vssd1 vccd1 vccd1 _696_/D sky130_fd_sc_hd__clkbuf_1
X_468_ _468_/A vssd1 vssd1 vccd1 vccd1 _659_/D sky130_fd_sc_hd__clkbuf_1
X_537_ _537_/A vssd1 vssd1 vccd1 vccd1 _680_/D sky130_fd_sc_hd__clkbuf_1
XFILLER_4_51 vssd1 vssd1 vccd1 vccd1 sky130_fd_sc_hd__decap_4
X_322_ _680_/Q _320_/X _321_/X vssd1 vssd1 vccd1 vccd1 _322_/X sky130_fd_sc_hd__a21o_1
XFILLER_18_38 vssd1 vssd1 vccd1 vccd1 sky130_fd_sc_hd__fill_2
XFILLER_10_83 vssd1 vssd1 vccd1 vccd1 sky130_fd_sc_hd__fill_1
XFILLER_19_135 vssd1 vssd1 vccd1 vccd1 sky130_fd_sc_hd__decap_8
X_727__54 vssd1 vssd1 vccd1 vccd1 _727__54/HI io_wbs_data_o[27] sky130_fd_sc_hd__conb_1
X_570_ _612_/A _570_/B _570_/C vssd1 vssd1 vccd1 vccd1 _591_/B sky130_fd_sc_hd__and3_1
Xoutput27 _632_/Q vssd1 vssd1 vccd1 vccd1 io_wbs_data_o[0] sky130_fd_sc_hd__buf_2
X_699_ _707_/CLK _699_/D vssd1 vssd1 vccd1 vccd1 _699_/Q sky130_fd_sc_hd__dfxtp_1
XTAP_119 vssd1 vccd1 sky130_fd_sc_hd__tapvpwrvgnd_1
XTAP_108 vssd1 vccd1 sky130_fd_sc_hd__tapvpwrvgnd_1
XFILLER_11_7 vssd1 vssd1 vccd1 vccd1 sky130_fd_sc_hd__fill_2