* NGSPICE file created from UART.ext - technology: sky130A

* Black-box entry subcircuit for sky130_fd_sc_hd__fill_2 abstract view
.subckt sky130_fd_sc_hd__fill_2 VGND VNB VPB VPWR
.ends

* Black-box entry subcircuit for sky130_fd_sc_hd__tapvpwrvgnd_1 abstract view
.subckt sky130_fd_sc_hd__tapvpwrvgnd_1 VGND VPWR
.ends

* Black-box entry subcircuit for sky130_fd_sc_hd__decap_4 abstract view
.subckt sky130_fd_sc_hd__decap_4 VGND VNB VPB VPWR
.ends

* Black-box entry subcircuit for sky130_fd_sc_hd__decap_8 abstract view
.subckt sky130_fd_sc_hd__decap_8 VGND VNB VPB VPWR
.ends

* Black-box entry subcircuit for sky130_fd_sc_hd__inv_2 abstract view
.subckt sky130_fd_sc_hd__inv_2 A VGND VNB VPB VPWR Y
.ends

* Black-box entry subcircuit for sky130_fd_sc_hd__decap_3 abstract view
.subckt sky130_fd_sc_hd__decap_3 VGND VNB VPB VPWR
.ends

* Black-box entry subcircuit for sky130_fd_sc_hd__decap_12 abstract view
.subckt sky130_fd_sc_hd__decap_12 VGND VNB VPB VPWR
.ends

* Black-box entry subcircuit for sky130_fd_sc_hd__mux2_1 abstract view
.subckt sky130_fd_sc_hd__mux2_1 A0 A1 S VGND VNB VPB VPWR X
.ends

* Black-box entry subcircuit for sky130_fd_sc_hd__o21bai_2 abstract view
.subckt sky130_fd_sc_hd__o21bai_2 A1 A2 B1_N VGND VNB VPB VPWR Y
.ends

* Black-box entry subcircuit for sky130_fd_sc_hd__clkbuf_2 abstract view
.subckt sky130_fd_sc_hd__clkbuf_2 A VGND VNB VPB VPWR X
.ends

* Black-box entry subcircuit for sky130_fd_sc_hd__fill_1 abstract view
.subckt sky130_fd_sc_hd__fill_1 VGND VNB VPB VPWR
.ends

* Black-box entry subcircuit for sky130_fd_sc_hd__or2b_1 abstract view
.subckt sky130_fd_sc_hd__or2b_1 A B_N VGND VNB VPB VPWR X
.ends

* Black-box entry subcircuit for sky130_fd_sc_hd__clkbuf_1 abstract view
.subckt sky130_fd_sc_hd__clkbuf_1 A VGND VNB VPB VPWR X
.ends

* Black-box entry subcircuit for sky130_fd_sc_hd__dfxtp_1 abstract view
.subckt sky130_fd_sc_hd__dfxtp_1 CLK D VGND VNB VPB VPWR Q
.ends

* Black-box entry subcircuit for sky130_fd_sc_hd__diode_2 abstract view
.subckt sky130_fd_sc_hd__diode_2 DIODE VGND VNB VPB VPWR
.ends

* Black-box entry subcircuit for sky130_fd_sc_hd__o21a_1 abstract view
.subckt sky130_fd_sc_hd__o21a_1 A1 A2 B1 VGND VNB VPB VPWR X
.ends

* Black-box entry subcircuit for sky130_fd_sc_hd__o211a_1 abstract view
.subckt sky130_fd_sc_hd__o211a_1 A1 A2 B1 C1 VGND VNB VPB VPWR X
.ends

* Black-box entry subcircuit for sky130_fd_sc_hd__and3b_1 abstract view
.subckt sky130_fd_sc_hd__and3b_1 A_N B C VGND VNB VPB VPWR X
.ends

* Black-box entry subcircuit for sky130_fd_sc_hd__decap_6 abstract view
.subckt sky130_fd_sc_hd__decap_6 VGND VNB VPB VPWR
.ends

* Black-box entry subcircuit for sky130_fd_sc_hd__a31o_1 abstract view
.subckt sky130_fd_sc_hd__a31o_1 A1 A2 A3 B1 VGND VNB VPB VPWR X
.ends

* Black-box entry subcircuit for sky130_fd_sc_hd__conb_1 abstract view
.subckt sky130_fd_sc_hd__conb_1 VGND VNB VPB VPWR HI LO
.ends

* Black-box entry subcircuit for sky130_fd_sc_hd__buf_2 abstract view
.subckt sky130_fd_sc_hd__buf_2 A VGND VNB VPB VPWR X
.ends

* Black-box entry subcircuit for sky130_fd_sc_hd__nor2_1 abstract view
.subckt sky130_fd_sc_hd__nor2_1 A B VGND VNB VPB VPWR Y
.ends

* Black-box entry subcircuit for sky130_fd_sc_hd__or3_1 abstract view
.subckt sky130_fd_sc_hd__or3_1 A B C VGND VNB VPB VPWR X
.ends

* Black-box entry subcircuit for sky130_fd_sc_hd__or2_1 abstract view
.subckt sky130_fd_sc_hd__or2_1 A B VGND VNB VPB VPWR X
.ends

* Black-box entry subcircuit for sky130_fd_sc_hd__a21bo_1 abstract view
.subckt sky130_fd_sc_hd__a21bo_1 A1 A2 B1_N VGND VNB VPB VPWR X
.ends

* Black-box entry subcircuit for sky130_fd_sc_hd__a21boi_1 abstract view
.subckt sky130_fd_sc_hd__a21boi_1 A1 A2 B1_N VGND VNB VPB VPWR Y
.ends

* Black-box entry subcircuit for sky130_fd_sc_hd__dlymetal6s2s_1 abstract view
.subckt sky130_fd_sc_hd__dlymetal6s2s_1 A VGND VNB VPB VPWR X
.ends

* Black-box entry subcircuit for sky130_fd_sc_hd__and2_1 abstract view
.subckt sky130_fd_sc_hd__and2_1 A B VGND VNB VPB VPWR X
.ends

* Black-box entry subcircuit for sky130_fd_sc_hd__or4_1 abstract view
.subckt sky130_fd_sc_hd__or4_1 A B C D VGND VNB VPB VPWR X
.ends

* Black-box entry subcircuit for sky130_fd_sc_hd__o21ba_1 abstract view
.subckt sky130_fd_sc_hd__o21ba_1 A1 A2 B1_N VGND VNB VPB VPWR X
.ends

* Black-box entry subcircuit for sky130_fd_sc_hd__or4b_1 abstract view
.subckt sky130_fd_sc_hd__or4b_1 A B C D_N VGND VNB VPB VPWR X
.ends

* Black-box entry subcircuit for sky130_fd_sc_hd__and3_1 abstract view
.subckt sky130_fd_sc_hd__and3_1 A B C VGND VNB VPB VPWR X
.ends

* Black-box entry subcircuit for sky130_fd_sc_hd__dfxtp_2 abstract view
.subckt sky130_fd_sc_hd__dfxtp_2 CLK D VGND VNB VPB VPWR Q
.ends

* Black-box entry subcircuit for sky130_fd_sc_hd__nand2_2 abstract view
.subckt sky130_fd_sc_hd__nand2_2 A B VGND VNB VPB VPWR Y
.ends

* Black-box entry subcircuit for sky130_fd_sc_hd__clkbuf_16 abstract view
.subckt sky130_fd_sc_hd__clkbuf_16 A VGND VNB VPB VPWR X
.ends

* Black-box entry subcircuit for sky130_fd_sc_hd__a221o_1 abstract view
.subckt sky130_fd_sc_hd__a221o_1 A1 A2 B1 B2 C1 VGND VNB VPB VPWR X
.ends

* Black-box entry subcircuit for sky130_fd_sc_hd__nor3_2 abstract view
.subckt sky130_fd_sc_hd__nor3_2 A B C VGND VNB VPB VPWR Y
.ends

* Black-box entry subcircuit for sky130_fd_sc_hd__nand2_1 abstract view
.subckt sky130_fd_sc_hd__nand2_1 A B VGND VNB VPB VPWR Y
.ends

* Black-box entry subcircuit for sky130_fd_sc_hd__and4bb_1 abstract view
.subckt sky130_fd_sc_hd__and4bb_1 A_N B_N C D VGND VNB VPB VPWR X
.ends

* Black-box entry subcircuit for sky130_fd_sc_hd__nand3b_1 abstract view
.subckt sky130_fd_sc_hd__nand3b_1 A_N B C VGND VNB VPB VPWR Y
.ends

* Black-box entry subcircuit for sky130_fd_sc_hd__or4_2 abstract view
.subckt sky130_fd_sc_hd__or4_2 A B C D VGND VNB VPB VPWR X
.ends

* Black-box entry subcircuit for sky130_fd_sc_hd__a211oi_1 abstract view
.subckt sky130_fd_sc_hd__a211oi_1 A1 A2 B1 C1 VGND VNB VPB VPWR Y
.ends

* Black-box entry subcircuit for sky130_fd_sc_hd__a221oi_1 abstract view
.subckt sky130_fd_sc_hd__a221oi_1 A1 A2 B1 B2 C1 VGND VNB VPB VPWR Y
.ends

* Black-box entry subcircuit for sky130_fd_sc_hd__or4b_2 abstract view
.subckt sky130_fd_sc_hd__or4b_2 A B C D_N VGND VNB VPB VPWR X
.ends

* Black-box entry subcircuit for sky130_fd_sc_hd__o311a_1 abstract view
.subckt sky130_fd_sc_hd__o311a_1 A1 A2 A3 B1 C1 VGND VNB VPB VPWR X
.ends

* Black-box entry subcircuit for sky130_fd_sc_hd__a21oi_1 abstract view
.subckt sky130_fd_sc_hd__a21oi_1 A1 A2 B1 VGND VNB VPB VPWR Y
.ends

* Black-box entry subcircuit for sky130_fd_sc_hd__xor2_1 abstract view
.subckt sky130_fd_sc_hd__xor2_1 A B VGND VNB VPB VPWR X
.ends

* Black-box entry subcircuit for sky130_fd_sc_hd__a21o_1 abstract view
.subckt sky130_fd_sc_hd__a21o_1 A1 A2 B1 VGND VNB VPB VPWR X
.ends

* Black-box entry subcircuit for sky130_fd_sc_hd__o221a_1 abstract view
.subckt sky130_fd_sc_hd__o221a_1 A1 A2 B1 B2 C1 VGND VNB VPB VPWR X
.ends

* Black-box entry subcircuit for sky130_fd_sc_hd__a2bb2o_1 abstract view
.subckt sky130_fd_sc_hd__a2bb2o_1 A1_N A2_N B1 B2 VGND VNB VPB VPWR X
.ends

* Black-box entry subcircuit for sky130_fd_sc_hd__xnor2_1 abstract view
.subckt sky130_fd_sc_hd__xnor2_1 A B VGND VNB VPB VPWR Y
.ends

* Black-box entry subcircuit for sky130_fd_sc_hd__o21ai_1 abstract view
.subckt sky130_fd_sc_hd__o21ai_1 A1 A2 B1 VGND VNB VPB VPWR Y
.ends

* Black-box entry subcircuit for sky130_fd_sc_hd__a22o_1 abstract view
.subckt sky130_fd_sc_hd__a22o_1 A1 A2 B1 B2 VGND VNB VPB VPWR X
.ends

* Black-box entry subcircuit for sky130_fd_sc_hd__o2111a_1 abstract view
.subckt sky130_fd_sc_hd__o2111a_1 A1 A2 B1 C1 D1 VGND VNB VPB VPWR X
.ends

* Black-box entry subcircuit for sky130_fd_sc_hd__and4b_1 abstract view
.subckt sky130_fd_sc_hd__and4b_1 A_N B C D VGND VNB VPB VPWR X
.ends

* Black-box entry subcircuit for sky130_fd_sc_hd__xnor2_2 abstract view
.subckt sky130_fd_sc_hd__xnor2_2 A B VGND VNB VPB VPWR Y
.ends

* Black-box entry subcircuit for sky130_fd_sc_hd__o31ai_1 abstract view
.subckt sky130_fd_sc_hd__o31ai_1 A1 A2 A3 B1 VGND VNB VPB VPWR Y
.ends

* Black-box entry subcircuit for sky130_fd_sc_hd__nand3_1 abstract view
.subckt sky130_fd_sc_hd__nand3_1 A B C VGND VNB VPB VPWR Y
.ends

* Black-box entry subcircuit for sky130_fd_sc_hd__or3b_1 abstract view
.subckt sky130_fd_sc_hd__or3b_1 A B C_N VGND VNB VPB VPWR X
.ends

* Black-box entry subcircuit for sky130_fd_sc_hd__and2b_1 abstract view
.subckt sky130_fd_sc_hd__and2b_1 A_N B VGND VNB VPB VPWR X
.ends

* Black-box entry subcircuit for sky130_fd_sc_hd__a211o_1 abstract view
.subckt sky130_fd_sc_hd__a211o_1 A1 A2 B1 C1 VGND VNB VPB VPWR X
.ends

* Black-box entry subcircuit for sky130_fd_sc_hd__o31a_1 abstract view
.subckt sky130_fd_sc_hd__o31a_1 A1 A2 A3 B1 VGND VNB VPB VPWR X
.ends

* Black-box entry subcircuit for sky130_fd_sc_hd__clkbuf_4 abstract view
.subckt sky130_fd_sc_hd__clkbuf_4 A VGND VNB VPB VPWR X
.ends

* Black-box entry subcircuit for sky130_fd_sc_hd__or2_2 abstract view
.subckt sky130_fd_sc_hd__or2_2 A B VGND VNB VPB VPWR X
.ends

* Black-box entry subcircuit for sky130_fd_sc_hd__nor3_1 abstract view
.subckt sky130_fd_sc_hd__nor3_1 A B C VGND VNB VPB VPWR Y
.ends

* Black-box entry subcircuit for sky130_fd_sc_hd__and4_1 abstract view
.subckt sky130_fd_sc_hd__and4_1 A B C D VGND VNB VPB VPWR X
.ends

* Black-box entry subcircuit for sky130_fd_sc_hd__nor4_1 abstract view
.subckt sky130_fd_sc_hd__nor4_1 A B C D VGND VNB VPB VPWR Y
.ends

* Black-box entry subcircuit for sky130_fd_sc_hd__or3_2 abstract view
.subckt sky130_fd_sc_hd__or3_2 A B C VGND VNB VPB VPWR X
.ends

* Black-box entry subcircuit for sky130_fd_sc_hd__nand4_1 abstract view
.subckt sky130_fd_sc_hd__nand4_1 A B C D VGND VNB VPB VPWR Y
.ends

* Black-box entry subcircuit for sky130_fd_sc_hd__nor2_2 abstract view
.subckt sky130_fd_sc_hd__nor2_2 A B VGND VNB VPB VPWR Y
.ends

* Black-box entry subcircuit for sky130_fd_sc_hd__nor3b_1 abstract view
.subckt sky130_fd_sc_hd__nor3b_1 A B C_N VGND VNB VPB VPWR Y
.ends

* Black-box entry subcircuit for sky130_fd_sc_hd__or3b_4 abstract view
.subckt sky130_fd_sc_hd__or3b_4 A B C_N VGND VNB VPB VPWR X
.ends

.subckt UART clock io_rxd io_txd io_uartInt io_uart_select io_wbs_ack_o io_wbs_data_o[0]
+ io_wbs_data_o[10] io_wbs_data_o[11] io_wbs_data_o[12] io_wbs_data_o[13] io_wbs_data_o[14]
+ io_wbs_data_o[15] io_wbs_data_o[16] io_wbs_data_o[17] io_wbs_data_o[18] io_wbs_data_o[19]
+ io_wbs_data_o[1] io_wbs_data_o[20] io_wbs_data_o[21] io_wbs_data_o[22] io_wbs_data_o[23]
+ io_wbs_data_o[24] io_wbs_data_o[25] io_wbs_data_o[26] io_wbs_data_o[27] io_wbs_data_o[28]
+ io_wbs_data_o[29] io_wbs_data_o[2] io_wbs_data_o[30] io_wbs_data_o[31] io_wbs_data_o[3]
+ io_wbs_data_o[4] io_wbs_data_o[5] io_wbs_data_o[6] io_wbs_data_o[7] io_wbs_data_o[8]
+ io_wbs_data_o[9] io_wbs_m2s_addr[0] io_wbs_m2s_addr[10] io_wbs_m2s_addr[11] io_wbs_m2s_addr[12]
+ io_wbs_m2s_addr[13] io_wbs_m2s_addr[14] io_wbs_m2s_addr[15] io_wbs_m2s_addr[1] io_wbs_m2s_addr[2]
+ io_wbs_m2s_addr[3] io_wbs_m2s_addr[4] io_wbs_m2s_addr[5] io_wbs_m2s_addr[6] io_wbs_m2s_addr[7]
+ io_wbs_m2s_addr[8] io_wbs_m2s_addr[9] io_wbs_m2s_data[0] io_wbs_m2s_data[10] io_wbs_m2s_data[11]
+ io_wbs_m2s_data[12] io_wbs_m2s_data[13] io_wbs_m2s_data[14] io_wbs_m2s_data[15]
+ io_wbs_m2s_data[16] io_wbs_m2s_data[17] io_wbs_m2s_data[18] io_wbs_m2s_data[19]
+ io_wbs_m2s_data[1] io_wbs_m2s_data[20] io_wbs_m2s_data[21] io_wbs_m2s_data[22] io_wbs_m2s_data[23]
+ io_wbs_m2s_data[24] io_wbs_m2s_data[25] io_wbs_m2s_data[26] io_wbs_m2s_data[27]
+ io_wbs_m2s_data[28] io_wbs_m2s_data[29] io_wbs_m2s_data[2] io_wbs_m2s_data[30] io_wbs_m2s_data[31]
+ io_wbs_m2s_data[3] io_wbs_m2s_data[4] io_wbs_m2s_data[5] io_wbs_m2s_data[6] io_wbs_m2s_data[7]
+ io_wbs_m2s_data[8] io_wbs_m2s_data[9] io_wbs_m2s_stb io_wbs_m2s_we reset vccd1 vssd1
XFILLER_39_222 vssd1 vssd1 vccd1 vccd1 sky130_fd_sc_hd__fill_2
XTAP_177 vssd1 vccd1 sky130_fd_sc_hd__tapvpwrvgnd_1
XTAP_188 vssd1 vccd1 sky130_fd_sc_hd__tapvpwrvgnd_1
XTAP_199 vssd1 vccd1 sky130_fd_sc_hd__tapvpwrvgnd_1
XFILLER_22_177 vssd1 vssd1 vccd1 vccd1 sky130_fd_sc_hd__decap_4
XFILLER_26_41 vssd1 vssd1 vccd1 vccd1 sky130_fd_sc_hd__decap_8
XFILLER_13_122 vssd1 vssd1 vccd1 vccd1 sky130_fd_sc_hd__fill_2
XFILLER_13_144 vssd1 vssd1 vccd1 vccd1 sky130_fd_sc_hd__fill_2
XFILLER_13_166 vssd1 vssd1 vccd1 vccd1 sky130_fd_sc_hd__fill_2
X_0985_ _1145_/Q vssd1 vssd1 vccd1 vccd1 _0999_/B sky130_fd_sc_hd__inv_2
XFILLER_27_225 vssd1 vssd1 vccd1 vccd1 sky130_fd_sc_hd__decap_3
XFILLER_10_114 vssd1 vssd1 vccd1 vccd1 sky130_fd_sc_hd__decap_4
XFILLER_12_65 vssd1 vssd1 vccd1 vccd1 sky130_fd_sc_hd__decap_12
XFILLER_37_51 vssd1 vssd1 vccd1 vccd1 sky130_fd_sc_hd__decap_4
X_0770_ _1097_/Q _1098_/Q _0770_/S vssd1 vssd1 vccd1 vccd1 _0771_/B sky130_fd_sc_hd__mux2_1
XFILLER_32_261 vssd1 vssd1 vccd1 vccd1 sky130_fd_sc_hd__fill_2
XFILLER_32_250 vssd1 vssd1 vccd1 vccd1 sky130_fd_sc_hd__fill_2
X_0968_ _1142_/Q _1141_/Q _0971_/S vssd1 vssd1 vccd1 vccd1 _0969_/B sky130_fd_sc_hd__mux2_1
X_0899_ _1037_/C _1044_/B _0898_/Y vssd1 vssd1 vccd1 vccd1 _0914_/A sky130_fd_sc_hd__o21bai_2
XFILLER_23_261 vssd1 vssd1 vccd1 vccd1 sky130_fd_sc_hd__fill_2
XFILLER_23_53 vssd1 vssd1 vccd1 vccd1 sky130_fd_sc_hd__decap_3
XFILLER_2_165 vssd1 vssd1 vccd1 vccd1 sky130_fd_sc_hd__decap_12
XFILLER_2_121 vssd1 vssd1 vccd1 vccd1 sky130_fd_sc_hd__decap_12
XFILLER_0_57 vssd1 vssd1 vccd1 vccd1 sky130_fd_sc_hd__fill_2
X_0822_ _0822_/A vssd1 vssd1 vccd1 vccd1 _0822_/X sky130_fd_sc_hd__clkbuf_2
XFILLER_9_55 vssd1 vssd1 vccd1 vccd1 sky130_fd_sc_hd__fill_1
X_0684_ input6/X input5/X vssd1 vssd1 vccd1 vccd1 _0708_/B sky130_fd_sc_hd__or2b_1
X_0753_ _0753_/A vssd1 vssd1 vccd1 vccd1 _1091_/D sky130_fd_sc_hd__clkbuf_1
X_1098_ _1106_/CLK _1098_/D vssd1 vssd1 vccd1 vccd1 _1098_/Q sky130_fd_sc_hd__dfxtp_1
XFILLER_20_264 vssd1 vssd1 vccd1 vccd1 sky130_fd_sc_hd__fill_1
XFILLER_20_297 vssd1 vssd1 vccd1 vccd1 sky130_fd_sc_hd__fill_2
XANTENNA__0829__C1 _0584_/A vssd1 vssd1 vccd1 vccd1 sky130_fd_sc_hd__diode_2
XFILLER_34_85 vssd1 vssd1 vccd1 vccd1 sky130_fd_sc_hd__decap_12
XFILLER_34_41 vssd1 vssd1 vccd1 vccd1 sky130_fd_sc_hd__decap_12
XFILLER_11_297 vssd1 vssd1 vccd1 vccd1 sky130_fd_sc_hd__fill_2
XFILLER_46_194 vssd1 vssd1 vccd1 vccd1 sky130_fd_sc_hd__fill_2
X_1021_ _1152_/Q vssd1 vssd1 vccd1 vccd1 _1021_/Y sky130_fd_sc_hd__inv_2
X_0805_ _0798_/X _0803_/X _0804_/X vssd1 vssd1 vccd1 vccd1 _1109_/D sky130_fd_sc_hd__o21a_1
X_0667_ input12/X _0657_/X _0666_/X _0664_/X vssd1 vssd1 vccd1 vccd1 _1066_/D sky130_fd_sc_hd__o211a_1
X_0598_ input11/X _1049_/Q _0622_/S vssd1 vssd1 vccd1 vccd1 _0599_/B sky130_fd_sc_hd__mux2_1
X_0736_ input3/X input4/X input2/X vssd1 vssd1 vccd1 vccd1 _0856_/C sky130_fd_sc_hd__and3b_1
XFILLER_44_109 vssd1 vssd1 vccd1 vccd1 sky130_fd_sc_hd__decap_12
XFILLER_29_139 vssd1 vssd1 vccd1 vccd1 sky130_fd_sc_hd__fill_2
XANTENNA_input18_A io_wbs_m2s_data[7] vssd1 vssd1 vccd1 vccd1 sky130_fd_sc_hd__diode_2
XFILLER_43_186 vssd1 vssd1 vccd1 vccd1 sky130_fd_sc_hd__fill_1
XFILLER_43_153 vssd1 vssd1 vccd1 vccd1 sky130_fd_sc_hd__fill_1
XFILLER_28_194 vssd1 vssd1 vccd1 vccd1 sky130_fd_sc_hd__fill_2
XFILLER_28_172 vssd1 vssd1 vccd1 vccd1 sky130_fd_sc_hd__fill_2
XTAP_337 vssd1 vccd1 sky130_fd_sc_hd__tapvpwrvgnd_1
XTAP_326 vssd1 vccd1 sky130_fd_sc_hd__tapvpwrvgnd_1
XTAP_315 vssd1 vccd1 sky130_fd_sc_hd__tapvpwrvgnd_1
XTAP_304 vssd1 vccd1 sky130_fd_sc_hd__tapvpwrvgnd_1
XFILLER_3_293 vssd1 vssd1 vccd1 vccd1 sky130_fd_sc_hd__decap_6
XFILLER_13_3 vssd1 vssd1 vccd1 vccd1 sky130_fd_sc_hd__decap_12
XFILLER_19_161 vssd1 vssd1 vccd1 vccd1 sky130_fd_sc_hd__fill_2
XFILLER_34_197 vssd1 vssd1 vccd1 vccd1 sky130_fd_sc_hd__fill_2
XFILLER_34_164 vssd1 vssd1 vccd1 vccd1 sky130_fd_sc_hd__fill_2
X_1004_ _1023_/A _0988_/X _0825_/Y _0822_/A vssd1 vssd1 vccd1 vccd1 _1004_/X sky130_fd_sc_hd__a31o_1
XFILLER_1_208 vssd1 vssd1 vccd1 vccd1 sky130_fd_sc_hd__decap_12
X_0719_ input14/X _1083_/Q _0726_/S vssd1 vssd1 vccd1 vccd1 _0720_/B sky130_fd_sc_hd__mux2_1
X_1163__36 vssd1 vssd1 vccd1 vccd1 _1163__36/HI io_wbs_data_o[11] sky130_fd_sc_hd__conb_1
Xoutput31 _1124_/Q vssd1 vssd1 vccd1 vccd1 io_wbs_data_o[6] sky130_fd_sc_hd__buf_2
XFILLER_16_131 vssd1 vssd1 vccd1 vccd1 sky130_fd_sc_hd__fill_2
XFILLER_39_212 vssd1 vssd1 vccd1 vccd1 sky130_fd_sc_hd__fill_2
XFILLER_39_201 vssd1 vssd1 vccd1 vccd1 sky130_fd_sc_hd__fill_2
XTAP_134 vssd1 vccd1 sky130_fd_sc_hd__tapvpwrvgnd_1
XTAP_123 vssd1 vccd1 sky130_fd_sc_hd__tapvpwrvgnd_1
XTAP_112 vssd1 vccd1 sky130_fd_sc_hd__tapvpwrvgnd_1
XTAP_101 vssd1 vccd1 sky130_fd_sc_hd__tapvpwrvgnd_1
XTAP_145 vssd1 vccd1 sky130_fd_sc_hd__tapvpwrvgnd_1
XTAP_156 vssd1 vccd1 sky130_fd_sc_hd__tapvpwrvgnd_1
XTAP_167 vssd1 vccd1 sky130_fd_sc_hd__tapvpwrvgnd_1
XTAP_178 vssd1 vccd1 sky130_fd_sc_hd__tapvpwrvgnd_1
XTAP_189 vssd1 vccd1 sky130_fd_sc_hd__tapvpwrvgnd_1
XFILLER_39_278 vssd1 vssd1 vccd1 vccd1 sky130_fd_sc_hd__fill_2
Xclkbuf_4_15_0_clock clkbuf_3_7_0_clock/X vssd1 vssd1 vccd1 vccd1 _1156_/CLK sky130_fd_sc_hd__clkbuf_2
XFILLER_45_259 vssd1 vssd1 vccd1 vccd1 sky130_fd_sc_hd__decap_3
XFILLER_42_85 vssd1 vssd1 vccd1 vccd1 sky130_fd_sc_hd__decap_12
XFILLER_42_41 vssd1 vssd1 vccd1 vccd1 sky130_fd_sc_hd__decap_12
XFILLER_3_57 vssd1 vssd1 vccd1 vccd1 sky130_fd_sc_hd__decap_12
XFILLER_36_226 vssd1 vssd1 vccd1 vccd1 sky130_fd_sc_hd__decap_12
XFILLER_44_281 vssd1 vssd1 vccd1 vccd1 sky130_fd_sc_hd__decap_12
X_0984_ _0980_/X _0983_/Y _0887_/X vssd1 vssd1 vccd1 vccd1 _1144_/D sky130_fd_sc_hd__o21a_1
XFILLER_42_207 vssd1 vssd1 vccd1 vccd1 sky130_fd_sc_hd__fill_1
XFILLER_35_281 vssd1 vssd1 vccd1 vccd1 sky130_fd_sc_hd__decap_12
XFILLER_12_77 vssd1 vssd1 vccd1 vccd1 sky130_fd_sc_hd__fill_2
XFILLER_45_6 vssd1 vssd1 vccd1 vccd1 sky130_fd_sc_hd__fill_2
XFILLER_17_270 vssd1 vssd1 vccd1 vccd1 sky130_fd_sc_hd__decap_8
XFILLER_17_281 vssd1 vssd1 vccd1 vccd1 sky130_fd_sc_hd__decap_12
X_0967_ _0967_/A vssd1 vssd1 vccd1 vccd1 _1140_/D sky130_fd_sc_hd__clkbuf_1
XANTENNA__1042__A0 input11/X vssd1 vssd1 vccd1 vccd1 sky130_fd_sc_hd__diode_2
X_0898_ _1107_/Q input1/X vssd1 vssd1 vccd1 vccd1 _0898_/Y sky130_fd_sc_hd__nor2_1
XANTENNA__0608__A0 input14/X vssd1 vssd1 vccd1 vccd1 sky130_fd_sc_hd__diode_2
XFILLER_23_43 vssd1 vssd1 vccd1 vccd1 sky130_fd_sc_hd__fill_1
XFILLER_23_273 vssd1 vssd1 vccd1 vccd1 sky130_fd_sc_hd__decap_6
XFILLER_23_87 vssd1 vssd1 vccd1 vccd1 sky130_fd_sc_hd__fill_1
XFILLER_2_177 vssd1 vssd1 vccd1 vccd1 sky130_fd_sc_hd__decap_12
XFILLER_2_133 vssd1 vssd1 vccd1 vccd1 sky130_fd_sc_hd__decap_6
XFILLER_0_25 vssd1 vssd1 vccd1 vccd1 sky130_fd_sc_hd__decap_3
XFILLER_14_295 vssd1 vssd1 vccd1 vccd1 sky130_fd_sc_hd__decap_4
X_0821_ _0821_/A _0821_/B _0821_/C vssd1 vssd1 vccd1 vccd1 _0821_/X sky130_fd_sc_hd__or3_1
X_0752_ _0752_/A _0752_/B vssd1 vssd1 vccd1 vccd1 _0753_/A sky130_fd_sc_hd__or2_1
XFILLER_43_3 vssd1 vssd1 vccd1 vccd1 sky130_fd_sc_hd__decap_12
X_0683_ _0683_/A _0683_/B vssd1 vssd1 vccd1 vccd1 _1073_/D sky130_fd_sc_hd__nor2_1
X_1097_ _1106_/CLK _1097_/D vssd1 vssd1 vccd1 vccd1 _1097_/Q sky130_fd_sc_hd__dfxtp_1
XFILLER_20_232 vssd1 vssd1 vccd1 vccd1 sky130_fd_sc_hd__fill_2
XFILLER_20_276 vssd1 vssd1 vccd1 vccd1 sky130_fd_sc_hd__decap_4
XFILLER_34_97 vssd1 vssd1 vccd1 vccd1 sky130_fd_sc_hd__decap_12
XFILLER_34_53 vssd1 vssd1 vccd1 vccd1 sky130_fd_sc_hd__decap_12
XFILLER_7_225 vssd1 vssd1 vccd1 vccd1 sky130_fd_sc_hd__decap_4
X_1169__42 vssd1 vssd1 vccd1 vccd1 _1169__42/HI io_wbs_data_o[17] sky130_fd_sc_hd__conb_1
X_1020_ _1018_/Y _1019_/X _0887_/X vssd1 vssd1 vccd1 vccd1 _1151_/D sky130_fd_sc_hd__o21a_1
XFILLER_46_173 vssd1 vssd1 vccd1 vccd1 sky130_fd_sc_hd__decap_8
X_0735_ _1088_/Q vssd1 vssd1 vccd1 vccd1 _0799_/B sky130_fd_sc_hd__clkbuf_2
X_0804_ _0887_/A vssd1 vssd1 vccd1 vccd1 _0804_/X sky130_fd_sc_hd__clkbuf_2
X_0666_ _1066_/Q _0672_/B vssd1 vssd1 vccd1 vccd1 _0666_/X sky130_fd_sc_hd__or2_1
X_0597_ _0619_/S vssd1 vssd1 vccd1 vccd1 _0622_/S sky130_fd_sc_hd__buf_2
X_1149_ _1149_/CLK _1149_/D vssd1 vssd1 vccd1 vccd1 _1149_/Q sky130_fd_sc_hd__dfxtp_1
XFILLER_29_31 vssd1 vssd1 vccd1 vccd1 sky130_fd_sc_hd__decap_12
XTAP_338 vssd1 vccd1 sky130_fd_sc_hd__tapvpwrvgnd_1
XTAP_327 vssd1 vccd1 sky130_fd_sc_hd__tapvpwrvgnd_1
XTAP_316 vssd1 vccd1 sky130_fd_sc_hd__tapvpwrvgnd_1
XTAP_305 vssd1 vccd1 sky130_fd_sc_hd__tapvpwrvgnd_1
XFILLER_3_261 vssd1 vssd1 vccd1 vccd1 sky130_fd_sc_hd__decap_12
X_1003_ _0997_/Y _0988_/X _1148_/Q vssd1 vssd1 vccd1 vccd1 _1003_/X sky130_fd_sc_hd__a21bo_1
XANTENNA__0977__C1 _0922_/X vssd1 vssd1 vccd1 vccd1 sky130_fd_sc_hd__diode_2
XFILLER_34_176 vssd1 vssd1 vccd1 vccd1 sky130_fd_sc_hd__fill_2
X_0718_ _0718_/A vssd1 vssd1 vccd1 vccd1 _1082_/D sky130_fd_sc_hd__clkbuf_1
Xclkbuf_4_11_0_clock clkbuf_3_5_0_clock/X vssd1 vssd1 vccd1 vccd1 _1117_/CLK sky130_fd_sc_hd__clkbuf_2
X_0649_ _0722_/A vssd1 vssd1 vccd1 vccd1 _0699_/A sky130_fd_sc_hd__clkbuf_1
XFILLER_15_55 vssd1 vssd1 vccd1 vccd1 sky130_fd_sc_hd__fill_1
XFILLER_25_110 vssd1 vssd1 vccd1 vccd1 sky130_fd_sc_hd__fill_2
XFILLER_31_76 vssd1 vssd1 vccd1 vccd1 sky130_fd_sc_hd__fill_2
Xoutput32 _1125_/Q vssd1 vssd1 vccd1 vccd1 io_wbs_data_o[7] sky130_fd_sc_hd__buf_2
XFILLER_0_253 vssd1 vssd1 vccd1 vccd1 sky130_fd_sc_hd__fill_2
XFILLER_0_297 vssd1 vssd1 vccd1 vccd1 sky130_fd_sc_hd__fill_2
XFILLER_0_286 vssd1 vssd1 vccd1 vccd1 sky130_fd_sc_hd__decap_8
XFILLER_31_179 vssd1 vssd1 vccd1 vccd1 sky130_fd_sc_hd__decap_4
XFILLER_31_157 vssd1 vssd1 vccd1 vccd1 sky130_fd_sc_hd__decap_4
XFILLER_31_102 vssd1 vssd1 vccd1 vccd1 sky130_fd_sc_hd__fill_2
XANTENNA__0671__A1 input14/X vssd1 vssd1 vccd1 vccd1 sky130_fd_sc_hd__diode_2
XFILLER_39_235 vssd1 vssd1 vccd1 vccd1 sky130_fd_sc_hd__fill_2
XTAP_135 vssd1 vccd1 sky130_fd_sc_hd__tapvpwrvgnd_1
XTAP_124 vssd1 vccd1 sky130_fd_sc_hd__tapvpwrvgnd_1
XTAP_113 vssd1 vccd1 sky130_fd_sc_hd__tapvpwrvgnd_1
XTAP_102 vssd1 vccd1 sky130_fd_sc_hd__tapvpwrvgnd_1
XTAP_146 vssd1 vccd1 sky130_fd_sc_hd__tapvpwrvgnd_1
XTAP_157 vssd1 vccd1 sky130_fd_sc_hd__tapvpwrvgnd_1
XTAP_168 vssd1 vccd1 sky130_fd_sc_hd__tapvpwrvgnd_1
XTAP_179 vssd1 vccd1 sky130_fd_sc_hd__tapvpwrvgnd_1
XFILLER_22_157 vssd1 vssd1 vccd1 vccd1 sky130_fd_sc_hd__decap_4
XFILLER_42_53 vssd1 vssd1 vccd1 vccd1 sky130_fd_sc_hd__decap_12
XFILLER_13_179 vssd1 vssd1 vccd1 vccd1 sky130_fd_sc_hd__decap_3
XFILLER_42_97 vssd1 vssd1 vccd1 vccd1 sky130_fd_sc_hd__decap_12
XFILLER_3_69 vssd1 vssd1 vccd1 vccd1 sky130_fd_sc_hd__decap_12
XFILLER_36_238 vssd1 vssd1 vccd1 vccd1 sky130_fd_sc_hd__decap_4
X_0983_ _0981_/Y _1023_/B _1144_/Q vssd1 vssd1 vccd1 vccd1 _0983_/Y sky130_fd_sc_hd__a21boi_1
XFILLER_27_216 vssd1 vssd1 vccd1 vccd1 sky130_fd_sc_hd__decap_8
XFILLER_27_205 vssd1 vssd1 vccd1 vccd1 sky130_fd_sc_hd__fill_1
XFILLER_35_293 vssd1 vssd1 vccd1 vccd1 sky130_fd_sc_hd__fill_1
XFILLER_6_109 vssd1 vssd1 vccd1 vccd1 sky130_fd_sc_hd__decap_12
XFILLER_18_249 vssd1 vssd1 vccd1 vccd1 sky130_fd_sc_hd__decap_3
XFILLER_41_230 vssd1 vssd1 vccd1 vccd1 sky130_fd_sc_hd__fill_2
XFILLER_32_274 vssd1 vssd1 vccd1 vccd1 sky130_fd_sc_hd__fill_2
XFILLER_17_293 vssd1 vssd1 vccd1 vccd1 sky130_fd_sc_hd__decap_6
X_0897_ _1126_/Q vssd1 vssd1 vccd1 vccd1 _0902_/A sky130_fd_sc_hd__dlymetal6s2s_1
X_0966_ _0972_/A _0966_/B vssd1 vssd1 vccd1 vccd1 _0967_/A sky130_fd_sc_hd__and2_1
XFILLER_23_66 vssd1 vssd1 vccd1 vccd1 sky130_fd_sc_hd__decap_4
XFILLER_23_230 vssd1 vssd1 vccd1 vccd1 sky130_fd_sc_hd__fill_2
XFILLER_3_3 vssd1 vssd1 vccd1 vccd1 sky130_fd_sc_hd__decap_12
XFILLER_23_99 vssd1 vssd1 vccd1 vccd1 sky130_fd_sc_hd__fill_2
XFILLER_2_189 vssd1 vssd1 vccd1 vccd1 sky130_fd_sc_hd__decap_6
XFILLER_0_15 vssd1 vssd1 vccd1 vccd1 sky130_fd_sc_hd__fill_2
XFILLER_9_57 vssd1 vssd1 vccd1 vccd1 sky130_fd_sc_hd__decap_12
X_0820_ _0820_/A _0820_/B vssd1 vssd1 vccd1 vccd1 _0821_/C sky130_fd_sc_hd__nor2_1
X_0751_ input14/X _1091_/Q _0765_/S vssd1 vssd1 vccd1 vccd1 _0752_/B sky130_fd_sc_hd__mux2_1
X_0682_ _0682_/A _0682_/B _0682_/C _0737_/A vssd1 vssd1 vccd1 vccd1 _0683_/B sky130_fd_sc_hd__or4_1
X_1096_ _1117_/CLK _1096_/D vssd1 vssd1 vccd1 vccd1 _1096_/Q sky130_fd_sc_hd__dfxtp_1
XFILLER_20_244 vssd1 vssd1 vccd1 vccd1 sky130_fd_sc_hd__fill_2
X_0949_ _0971_/S vssd1 vssd1 vccd1 vccd1 _0962_/S sky130_fd_sc_hd__clkbuf_2
XFILLER_34_65 vssd1 vssd1 vccd1 vccd1 sky130_fd_sc_hd__decap_12
XFILLER_7_248 vssd1 vssd1 vccd1 vccd1 sky130_fd_sc_hd__fill_2
XANTENNA__0765__A0 input18/X vssd1 vssd1 vccd1 vccd1 sky130_fd_sc_hd__diode_2
X_0734_ _0734_/A vssd1 vssd1 vccd1 vccd1 _1087_/D sky130_fd_sc_hd__clkbuf_1
X_0803_ _0820_/A _0801_/X _0808_/B vssd1 vssd1 vccd1 vccd1 _0803_/X sky130_fd_sc_hd__o21ba_1
X_0665_ input11/X _0657_/X _0663_/X _0664_/X vssd1 vssd1 vccd1 vccd1 _1065_/D sky130_fd_sc_hd__o211a_1
X_0596_ _0682_/A _0708_/A vssd1 vssd1 vccd1 vccd1 _0619_/S sky130_fd_sc_hd__or2_1
X_1148_ _1156_/CLK _1148_/D vssd1 vssd1 vccd1 vccd1 _1148_/Q sky130_fd_sc_hd__dfxtp_1
X_1079_ _1158_/CLK _1079_/D vssd1 vssd1 vccd1 vccd1 _1079_/Q sky130_fd_sc_hd__dfxtp_1
XFILLER_29_87 vssd1 vssd1 vccd1 vccd1 sky130_fd_sc_hd__fill_2
XFILLER_29_76 vssd1 vssd1 vccd1 vccd1 sky130_fd_sc_hd__fill_2
XFILLER_29_43 vssd1 vssd1 vccd1 vccd1 sky130_fd_sc_hd__decap_12
XFILLER_43_177 vssd1 vssd1 vccd1 vccd1 sky130_fd_sc_hd__fill_2
XFILLER_43_166 vssd1 vssd1 vccd1 vccd1 sky130_fd_sc_hd__fill_2
XFILLER_43_111 vssd1 vssd1 vccd1 vccd1 sky130_fd_sc_hd__fill_1
XTAP_328 vssd1 vccd1 sky130_fd_sc_hd__tapvpwrvgnd_1
XTAP_317 vssd1 vccd1 sky130_fd_sc_hd__tapvpwrvgnd_1
XTAP_306 vssd1 vccd1 sky130_fd_sc_hd__tapvpwrvgnd_1
XFILLER_3_273 vssd1 vssd1 vccd1 vccd1 sky130_fd_sc_hd__decap_6
X_1002_ _1148_/Q _1147_/Q _1007_/A _0988_/A vssd1 vssd1 vccd1 vccd1 _1002_/X sky130_fd_sc_hd__or4b_1
XFILLER_19_130 vssd1 vssd1 vccd1 vccd1 sky130_fd_sc_hd__fill_2
XANTENNA__0729__A0 input17/X vssd1 vssd1 vccd1 vccd1 sky130_fd_sc_hd__diode_2
X_0717_ _0720_/A _0717_/B vssd1 vssd1 vccd1 vccd1 _0718_/A sky130_fd_sc_hd__and2_1
X_0648_ _0648_/A vssd1 vssd1 vccd1 vccd1 _1063_/D sky130_fd_sc_hd__clkbuf_1
X_0579_ _0922_/A _0579_/B _0579_/C vssd1 vssd1 vccd1 vccd1 _0580_/A sky130_fd_sc_hd__and3_1
XFILLER_40_158 vssd1 vssd1 vccd1 vccd1 sky130_fd_sc_hd__fill_2
XFILLER_40_147 vssd1 vssd1 vccd1 vccd1 sky130_fd_sc_hd__fill_1
XFILLER_15_89 vssd1 vssd1 vccd1 vccd1 sky130_fd_sc_hd__decap_3
XFILLER_25_100 vssd1 vssd1 vccd1 vccd1 sky130_fd_sc_hd__decap_4
XFILLER_31_55 vssd1 vssd1 vccd1 vccd1 sky130_fd_sc_hd__fill_1
Xoutput22 _1097_/Q vssd1 vssd1 vccd1 vccd1 io_txd sky130_fd_sc_hd__buf_2
XFILLER_16_111 vssd1 vssd1 vccd1 vccd1 sky130_fd_sc_hd__fill_2
XFILLER_16_166 vssd1 vssd1 vccd1 vccd1 sky130_fd_sc_hd__fill_2
XFILLER_31_147 vssd1 vssd1 vccd1 vccd1 sky130_fd_sc_hd__fill_2
XFILLER_16_199 vssd1 vssd1 vccd1 vccd1 sky130_fd_sc_hd__decap_3
XTAP_114 vssd1 vccd1 sky130_fd_sc_hd__tapvpwrvgnd_1
XTAP_103 vssd1 vccd1 sky130_fd_sc_hd__tapvpwrvgnd_1
XTAP_136 vssd1 vccd1 sky130_fd_sc_hd__tapvpwrvgnd_1
XTAP_125 vssd1 vccd1 sky130_fd_sc_hd__tapvpwrvgnd_1
XTAP_147 vssd1 vccd1 sky130_fd_sc_hd__tapvpwrvgnd_1
XTAP_158 vssd1 vccd1 sky130_fd_sc_hd__tapvpwrvgnd_1
XTAP_169 vssd1 vccd1 sky130_fd_sc_hd__tapvpwrvgnd_1
XFILLER_22_136 vssd1 vssd1 vccd1 vccd1 sky130_fd_sc_hd__decap_4
XFILLER_22_169 vssd1 vssd1 vccd1 vccd1 sky130_fd_sc_hd__decap_3
XFILLER_45_217 vssd1 vssd1 vccd1 vccd1 sky130_fd_sc_hd__fill_2
XFILLER_26_66 vssd1 vssd1 vccd1 vccd1 sky130_fd_sc_hd__decap_6
XFILLER_42_65 vssd1 vssd1 vccd1 vccd1 sky130_fd_sc_hd__decap_12
XFILLER_26_88 vssd1 vssd1 vccd1 vccd1 sky130_fd_sc_hd__decap_8
Xclkbuf_4_9_0_clock clkbuf_4_9_0_clock/A vssd1 vssd1 vccd1 vccd1 _1110_/CLK sky130_fd_sc_hd__clkbuf_2
XFILLER_3_15 vssd1 vssd1 vccd1 vccd1 sky130_fd_sc_hd__decap_12
X_0982_ _0988_/A vssd1 vssd1 vccd1 vccd1 _1023_/B sky130_fd_sc_hd__clkbuf_2
XFILLER_8_195 vssd1 vssd1 vccd1 vccd1 sky130_fd_sc_hd__fill_1
XFILLER_35_272 vssd1 vssd1 vccd1 vccd1 sky130_fd_sc_hd__fill_1
XFILLER_35_250 vssd1 vssd1 vccd1 vccd1 sky130_fd_sc_hd__fill_2
XFILLER_10_139 vssd1 vssd1 vccd1 vccd1 sky130_fd_sc_hd__fill_1
XFILLER_41_297 vssd1 vssd1 vccd1 vccd1 sky130_fd_sc_hd__fill_2
XFILLER_32_297 vssd1 vssd1 vccd1 vccd1 sky130_fd_sc_hd__fill_2
X_0896_ _0878_/B _0894_/X _0895_/X _0843_/X vssd1 vssd1 vccd1 vccd1 _1125_/D sky130_fd_sc_hd__o211a_1
X_0965_ _1141_/Q _1140_/Q _0971_/S vssd1 vssd1 vccd1 vccd1 _0966_/B sky130_fd_sc_hd__mux2_1
XFILLER_23_297 vssd1 vssd1 vccd1 vccd1 sky130_fd_sc_hd__fill_2
Xclkbuf_3_6_0_clock clkbuf_0_clock/X vssd1 vssd1 vccd1 vccd1 clkbuf_3_6_0_clock/X
+ sky130_fd_sc_hd__clkbuf_2
XFILLER_9_69 vssd1 vssd1 vccd1 vccd1 sky130_fd_sc_hd__decap_12
XFILLER_14_220 vssd1 vssd1 vccd1 vccd1 sky130_fd_sc_hd__fill_2
XFILLER_14_253 vssd1 vssd1 vccd1 vccd1 sky130_fd_sc_hd__fill_2
X_0681_ input18/X _0657_/A _0680_/X _0674_/X vssd1 vssd1 vccd1 vccd1 _1072_/D sky130_fd_sc_hd__o211a_1
X_0750_ _0750_/A vssd1 vssd1 vccd1 vccd1 _1090_/D sky130_fd_sc_hd__clkbuf_1
X_1095_ _1095_/CLK _1095_/D vssd1 vssd1 vccd1 vccd1 _1095_/Q sky130_fd_sc_hd__dfxtp_2
X_0948_ _1006_/B _0948_/B vssd1 vssd1 vccd1 vccd1 _0971_/S sky130_fd_sc_hd__nand2_2
X_0879_ _0877_/X _0878_/X _0804_/X vssd1 vssd1 vccd1 vccd1 _1121_/D sky130_fd_sc_hd__o21a_1
XFILLER_34_77 vssd1 vssd1 vccd1 vccd1 sky130_fd_sc_hd__decap_6
XFILLER_11_223 vssd1 vssd1 vccd1 vccd1 sky130_fd_sc_hd__fill_1
XFILLER_7_238 vssd1 vssd1 vccd1 vccd1 sky130_fd_sc_hd__fill_2
XFILLER_11_234 vssd1 vssd1 vccd1 vccd1 sky130_fd_sc_hd__fill_1
XFILLER_11_245 vssd1 vssd1 vccd1 vccd1 sky130_fd_sc_hd__fill_2
XFILLER_11_267 vssd1 vssd1 vccd1 vccd1 sky130_fd_sc_hd__decap_12
XFILLER_11_289 vssd1 vssd1 vccd1 vccd1 sky130_fd_sc_hd__fill_1
XFILLER_38_109 vssd1 vssd1 vccd1 vccd1 sky130_fd_sc_hd__decap_12
XFILLER_46_186 vssd1 vssd1 vccd1 vccd1 sky130_fd_sc_hd__decap_8
X_0802_ _1109_/Q _1108_/Q _0802_/C vssd1 vssd1 vccd1 vccd1 _0808_/B sky130_fd_sc_hd__or3_1
X_0733_ _0740_/A _0733_/B vssd1 vssd1 vccd1 vccd1 _0734_/A sky130_fd_sc_hd__and2_1
X_0664_ _0922_/A vssd1 vssd1 vccd1 vccd1 _0664_/X sky130_fd_sc_hd__clkbuf_2
X_0595_ _0686_/A _0682_/C _0737_/A vssd1 vssd1 vccd1 vccd1 _0708_/A sky130_fd_sc_hd__or3_1
X_1147_ _1156_/CLK _1147_/D vssd1 vssd1 vccd1 vccd1 _1147_/Q sky130_fd_sc_hd__dfxtp_1
XFILLER_1_81 vssd1 vssd1 vccd1 vccd1 sky130_fd_sc_hd__decap_12
X_1078_ _1158_/CLK _1078_/D vssd1 vssd1 vccd1 vccd1 _1078_/Q sky130_fd_sc_hd__dfxtp_1