* NGSPICE file created from UART.ext - technology: sky130A

* Black-box entry subcircuit for sky130_fd_sc_hd__tapvpwrvgnd_1 abstract view
.subckt sky130_fd_sc_hd__tapvpwrvgnd_1 VGND VPWR
.ends

* Black-box entry subcircuit for sky130_fd_sc_hd__fill_2 abstract view
.subckt sky130_fd_sc_hd__fill_2 VGND VNB VPB VPWR
.ends

* Black-box entry subcircuit for sky130_fd_sc_hd__decap_3 abstract view
.subckt sky130_fd_sc_hd__decap_3 VGND VNB VPB VPWR
.ends

* Black-box entry subcircuit for sky130_fd_sc_hd__decap_12 abstract view
.subckt sky130_fd_sc_hd__decap_12 VGND VNB VPB VPWR
.ends

* Black-box entry subcircuit for sky130_fd_sc_hd__fill_1 abstract view
.subckt sky130_fd_sc_hd__fill_1 VGND VNB VPB VPWR
.ends

* Black-box entry subcircuit for sky130_fd_sc_hd__and2_1 abstract view
.subckt sky130_fd_sc_hd__and2_1 A B VGND VNB VPB VPWR X
.ends

* Black-box entry subcircuit for sky130_fd_sc_hd__decap_4 abstract view
.subckt sky130_fd_sc_hd__decap_4 VGND VNB VPB VPWR
.ends

* Black-box entry subcircuit for sky130_fd_sc_hd__decap_6 abstract view
.subckt sky130_fd_sc_hd__decap_6 VGND VNB VPB VPWR
.ends

* Black-box entry subcircuit for sky130_fd_sc_hd__or4_2 abstract view
.subckt sky130_fd_sc_hd__or4_2 A B C D VGND VNB VPB VPWR X
.ends

* Black-box entry subcircuit for sky130_fd_sc_hd__or2_1 abstract view
.subckt sky130_fd_sc_hd__or2_1 A B VGND VNB VPB VPWR X
.ends

* Black-box entry subcircuit for sky130_fd_sc_hd__mux2_1 abstract view
.subckt sky130_fd_sc_hd__mux2_1 A0 A1 S VGND VNB VPB VPWR X
.ends

* Black-box entry subcircuit for sky130_fd_sc_hd__o211a_1 abstract view
.subckt sky130_fd_sc_hd__o211a_1 A1 A2 B1 C1 VGND VNB VPB VPWR X
.ends

* Black-box entry subcircuit for sky130_fd_sc_hd__a211o_1 abstract view
.subckt sky130_fd_sc_hd__a211o_1 A1 A2 B1 C1 VGND VNB VPB VPWR X
.ends

* Black-box entry subcircuit for sky130_fd_sc_hd__nand2_1 abstract view
.subckt sky130_fd_sc_hd__nand2_1 A B VGND VNB VPB VPWR Y
.ends

* Black-box entry subcircuit for sky130_fd_sc_hd__dfxtp_1 abstract view
.subckt sky130_fd_sc_hd__dfxtp_1 CLK D VGND VNB VPB VPWR Q
.ends

* Black-box entry subcircuit for sky130_fd_sc_hd__conb_1 abstract view
.subckt sky130_fd_sc_hd__conb_1 VGND VNB VPB VPWR HI LO
.ends

* Black-box entry subcircuit for sky130_fd_sc_hd__and3b_1 abstract view
.subckt sky130_fd_sc_hd__and3b_1 A_N B C VGND VNB VPB VPWR X
.ends

* Black-box entry subcircuit for sky130_fd_sc_hd__clkbuf_1 abstract view
.subckt sky130_fd_sc_hd__clkbuf_1 A VGND VNB VPB VPWR X
.ends

* Black-box entry subcircuit for sky130_fd_sc_hd__a221o_1 abstract view
.subckt sky130_fd_sc_hd__a221o_1 A1 A2 B1 B2 C1 VGND VNB VPB VPWR X
.ends

* Black-box entry subcircuit for sky130_fd_sc_hd__diode_2 abstract view
.subckt sky130_fd_sc_hd__diode_2 DIODE VGND VNB VPB VPWR
.ends

* Black-box entry subcircuit for sky130_fd_sc_hd__dlymetal6s2s_1 abstract view
.subckt sky130_fd_sc_hd__dlymetal6s2s_1 A VGND VNB VPB VPWR X
.ends

* Black-box entry subcircuit for sky130_fd_sc_hd__buf_2 abstract view
.subckt sky130_fd_sc_hd__buf_2 A VGND VNB VPB VPWR X
.ends

* Black-box entry subcircuit for sky130_fd_sc_hd__clkbuf_2 abstract view
.subckt sky130_fd_sc_hd__clkbuf_2 A VGND VNB VPB VPWR X
.ends

* Black-box entry subcircuit for sky130_fd_sc_hd__decap_8 abstract view
.subckt sky130_fd_sc_hd__decap_8 VGND VNB VPB VPWR
.ends

* Black-box entry subcircuit for sky130_fd_sc_hd__and3_1 abstract view
.subckt sky130_fd_sc_hd__and3_1 A B C VGND VNB VPB VPWR X
.ends

* Black-box entry subcircuit for sky130_fd_sc_hd__or4_1 abstract view
.subckt sky130_fd_sc_hd__or4_1 A B C D VGND VNB VPB VPWR X
.ends

* Black-box entry subcircuit for sky130_fd_sc_hd__o22a_1 abstract view
.subckt sky130_fd_sc_hd__o22a_1 A1 A2 B1 B2 VGND VNB VPB VPWR X
.ends

* Black-box entry subcircuit for sky130_fd_sc_hd__xor2_1 abstract view
.subckt sky130_fd_sc_hd__xor2_1 A B VGND VNB VPB VPWR X
.ends

* Black-box entry subcircuit for sky130_fd_sc_hd__a31o_1 abstract view
.subckt sky130_fd_sc_hd__a31o_1 A1 A2 A3 B1 VGND VNB VPB VPWR X
.ends

* Black-box entry subcircuit for sky130_fd_sc_hd__and2b_1 abstract view
.subckt sky130_fd_sc_hd__and2b_1 A_N B VGND VNB VPB VPWR X
.ends

* Black-box entry subcircuit for sky130_fd_sc_hd__a2111oi_1 abstract view
.subckt sky130_fd_sc_hd__a2111oi_1 A1 A2 B1 C1 D1 VGND VNB VPB VPWR Y
.ends

* Black-box entry subcircuit for sky130_fd_sc_hd__or2_2 abstract view
.subckt sky130_fd_sc_hd__or2_2 A B VGND VNB VPB VPWR X
.ends

* Black-box entry subcircuit for sky130_fd_sc_hd__a21o_1 abstract view
.subckt sky130_fd_sc_hd__a21o_1 A1 A2 B1 VGND VNB VPB VPWR X
.ends

* Black-box entry subcircuit for sky130_fd_sc_hd__o31a_1 abstract view
.subckt sky130_fd_sc_hd__o31a_1 A1 A2 A3 B1 VGND VNB VPB VPWR X
.ends

* Black-box entry subcircuit for sky130_fd_sc_hd__nor2_2 abstract view
.subckt sky130_fd_sc_hd__nor2_2 A B VGND VNB VPB VPWR Y
.ends

* Black-box entry subcircuit for sky130_fd_sc_hd__inv_2 abstract view
.subckt sky130_fd_sc_hd__inv_2 A VGND VNB VPB VPWR Y
.ends

* Black-box entry subcircuit for sky130_fd_sc_hd__nor2_1 abstract view
.subckt sky130_fd_sc_hd__nor2_1 A B VGND VNB VPB VPWR Y
.ends

* Black-box entry subcircuit for sky130_fd_sc_hd__o21a_1 abstract view
.subckt sky130_fd_sc_hd__o21a_1 A1 A2 B1 VGND VNB VPB VPWR X
.ends

* Black-box entry subcircuit for sky130_fd_sc_hd__o21ai_1 abstract view
.subckt sky130_fd_sc_hd__o21ai_1 A1 A2 B1 VGND VNB VPB VPWR Y
.ends

* Black-box entry subcircuit for sky130_fd_sc_hd__or3_1 abstract view
.subckt sky130_fd_sc_hd__or3_1 A B C VGND VNB VPB VPWR X
.ends

* Black-box entry subcircuit for sky130_fd_sc_hd__clkbuf_16 abstract view
.subckt sky130_fd_sc_hd__clkbuf_16 A VGND VNB VPB VPWR X
.ends

* Black-box entry subcircuit for sky130_fd_sc_hd__nand3_1 abstract view
.subckt sky130_fd_sc_hd__nand3_1 A B C VGND VNB VPB VPWR Y
.ends

* Black-box entry subcircuit for sky130_fd_sc_hd__nor4_4 abstract view
.subckt sky130_fd_sc_hd__nor4_4 A B C D VGND VNB VPB VPWR Y
.ends

* Black-box entry subcircuit for sky130_fd_sc_hd__a21oi_1 abstract view
.subckt sky130_fd_sc_hd__a21oi_1 A1 A2 B1 VGND VNB VPB VPWR Y
.ends

* Black-box entry subcircuit for sky130_fd_sc_hd__a211oi_1 abstract view
.subckt sky130_fd_sc_hd__a211oi_1 A1 A2 B1 C1 VGND VNB VPB VPWR Y
.ends

* Black-box entry subcircuit for sky130_fd_sc_hd__a2111o_1 abstract view
.subckt sky130_fd_sc_hd__a2111o_1 A1 A2 B1 C1 D1 VGND VNB VPB VPWR X
.ends

* Black-box entry subcircuit for sky130_fd_sc_hd__or3_2 abstract view
.subckt sky130_fd_sc_hd__or3_2 A B C VGND VNB VPB VPWR X
.ends

* Black-box entry subcircuit for sky130_fd_sc_hd__and4b_1 abstract view
.subckt sky130_fd_sc_hd__and4b_1 A_N B C D VGND VNB VPB VPWR X
.ends

* Black-box entry subcircuit for sky130_fd_sc_hd__nand3b_2 abstract view
.subckt sky130_fd_sc_hd__nand3b_2 A_N B C VGND VNB VPB VPWR Y
.ends

* Black-box entry subcircuit for sky130_fd_sc_hd__dfxtp_2 abstract view
.subckt sky130_fd_sc_hd__dfxtp_2 CLK D VGND VNB VPB VPWR Q
.ends

* Black-box entry subcircuit for sky130_fd_sc_hd__nor4_1 abstract view
.subckt sky130_fd_sc_hd__nor4_1 A B C D VGND VNB VPB VPWR Y
.ends

* Black-box entry subcircuit for sky130_fd_sc_hd__clkbuf_4 abstract view
.subckt sky130_fd_sc_hd__clkbuf_4 A VGND VNB VPB VPWR X
.ends

* Black-box entry subcircuit for sky130_fd_sc_hd__or2b_1 abstract view
.subckt sky130_fd_sc_hd__or2b_1 A B_N VGND VNB VPB VPWR X
.ends

* Black-box entry subcircuit for sky130_fd_sc_hd__o31ai_1 abstract view
.subckt sky130_fd_sc_hd__o31ai_1 A1 A2 A3 B1 VGND VNB VPB VPWR Y
.ends

* Black-box entry subcircuit for sky130_fd_sc_hd__a32o_1 abstract view
.subckt sky130_fd_sc_hd__a32o_1 A1 A2 A3 B1 B2 VGND VNB VPB VPWR X
.ends

* Black-box entry subcircuit for sky130_fd_sc_hd__or3b_1 abstract view
.subckt sky130_fd_sc_hd__or3b_1 A B C_N VGND VNB VPB VPWR X
.ends

* Black-box entry subcircuit for sky130_fd_sc_hd__a221oi_1 abstract view
.subckt sky130_fd_sc_hd__a221oi_1 A1 A2 B1 B2 C1 VGND VNB VPB VPWR Y
.ends

* Black-box entry subcircuit for sky130_fd_sc_hd__xnor2_2 abstract view
.subckt sky130_fd_sc_hd__xnor2_2 A B VGND VNB VPB VPWR Y
.ends

* Black-box entry subcircuit for sky130_fd_sc_hd__or4b_1 abstract view
.subckt sky130_fd_sc_hd__or4b_1 A B C D_N VGND VNB VPB VPWR X
.ends

* Black-box entry subcircuit for sky130_fd_sc_hd__o41a_1 abstract view
.subckt sky130_fd_sc_hd__o41a_1 A1 A2 A3 A4 B1 VGND VNB VPB VPWR X
.ends

* Black-box entry subcircuit for sky130_fd_sc_hd__a22o_1 abstract view
.subckt sky130_fd_sc_hd__a22o_1 A1 A2 B1 B2 VGND VNB VPB VPWR X
.ends

* Black-box entry subcircuit for sky130_fd_sc_hd__nor3_1 abstract view
.subckt sky130_fd_sc_hd__nor3_1 A B C VGND VNB VPB VPWR Y
.ends

* Black-box entry subcircuit for sky130_fd_sc_hd__and4bb_1 abstract view
.subckt sky130_fd_sc_hd__and4bb_1 A_N B_N C D VGND VNB VPB VPWR X
.ends

* Black-box entry subcircuit for sky130_fd_sc_hd__or4b_2 abstract view
.subckt sky130_fd_sc_hd__or4b_2 A B C D_N VGND VNB VPB VPWR X
.ends

* Black-box entry subcircuit for sky130_fd_sc_hd__clkinv_2 abstract view
.subckt sky130_fd_sc_hd__clkinv_2 A VGND VNB VPB VPWR Y
.ends

* Black-box entry subcircuit for sky130_fd_sc_hd__nor4_2 abstract view
.subckt sky130_fd_sc_hd__nor4_2 A B C D VGND VNB VPB VPWR Y
.ends

* Black-box entry subcircuit for sky130_fd_sc_hd__a311oi_1 abstract view
.subckt sky130_fd_sc_hd__a311oi_1 A1 A2 A3 B1 C1 VGND VNB VPB VPWR Y
.ends

* Black-box entry subcircuit for sky130_fd_sc_hd__a311o_1 abstract view
.subckt sky130_fd_sc_hd__a311o_1 A1 A2 A3 B1 C1 VGND VNB VPB VPWR X
.ends

* Black-box entry subcircuit for sky130_fd_sc_hd__and4_1 abstract view
.subckt sky130_fd_sc_hd__and4_1 A B C D VGND VNB VPB VPWR X
.ends

.subckt UART clock io_rxd io_txd io_uartInt io_uart_select io_wbs_ack_o io_wbs_data_o[0]
+ io_wbs_data_o[10] io_wbs_data_o[11] io_wbs_data_o[12] io_wbs_data_o[13] io_wbs_data_o[14]
+ io_wbs_data_o[15] io_wbs_data_o[16] io_wbs_data_o[17] io_wbs_data_o[18] io_wbs_data_o[19]
+ io_wbs_data_o[1] io_wbs_data_o[20] io_wbs_data_o[21] io_wbs_data_o[22] io_wbs_data_o[23]
+ io_wbs_data_o[24] io_wbs_data_o[25] io_wbs_data_o[26] io_wbs_data_o[27] io_wbs_data_o[28]
+ io_wbs_data_o[29] io_wbs_data_o[2] io_wbs_data_o[30] io_wbs_data_o[31] io_wbs_data_o[3]
+ io_wbs_data_o[4] io_wbs_data_o[5] io_wbs_data_o[6] io_wbs_data_o[7] io_wbs_data_o[8]
+ io_wbs_data_o[9] io_wbs_m2s_addr[0] io_wbs_m2s_addr[10] io_wbs_m2s_addr[11] io_wbs_m2s_addr[12]
+ io_wbs_m2s_addr[13] io_wbs_m2s_addr[14] io_wbs_m2s_addr[15] io_wbs_m2s_addr[16]
+ io_wbs_m2s_addr[17] io_wbs_m2s_addr[18] io_wbs_m2s_addr[19] io_wbs_m2s_addr[1] io_wbs_m2s_addr[20]
+ io_wbs_m2s_addr[21] io_wbs_m2s_addr[22] io_wbs_m2s_addr[23] io_wbs_m2s_addr[24]
+ io_wbs_m2s_addr[25] io_wbs_m2s_addr[26] io_wbs_m2s_addr[27] io_wbs_m2s_addr[28]
+ io_wbs_m2s_addr[29] io_wbs_m2s_addr[2] io_wbs_m2s_addr[30] io_wbs_m2s_addr[31] io_wbs_m2s_addr[3]
+ io_wbs_m2s_addr[4] io_wbs_m2s_addr[5] io_wbs_m2s_addr[6] io_wbs_m2s_addr[7] io_wbs_m2s_addr[8]
+ io_wbs_m2s_addr[9] io_wbs_m2s_data[0] io_wbs_m2s_data[10] io_wbs_m2s_data[11] io_wbs_m2s_data[12]
+ io_wbs_m2s_data[13] io_wbs_m2s_data[14] io_wbs_m2s_data[15] io_wbs_m2s_data[16]
+ io_wbs_m2s_data[17] io_wbs_m2s_data[18] io_wbs_m2s_data[19] io_wbs_m2s_data[1] io_wbs_m2s_data[20]
+ io_wbs_m2s_data[21] io_wbs_m2s_data[22] io_wbs_m2s_data[23] io_wbs_m2s_data[24]
+ io_wbs_m2s_data[25] io_wbs_m2s_data[26] io_wbs_m2s_data[27] io_wbs_m2s_data[28]
+ io_wbs_m2s_data[29] io_wbs_m2s_data[2] io_wbs_m2s_data[30] io_wbs_m2s_data[31] io_wbs_m2s_data[3]
+ io_wbs_m2s_data[4] io_wbs_m2s_data[5] io_wbs_m2s_data[6] io_wbs_m2s_data[7] io_wbs_m2s_data[8]
+ io_wbs_m2s_data[9] io_wbs_m2s_stb io_wbs_m2s_we reset vccd1 vssd1
XTAP_177 vssd1 vccd1 sky130_fd_sc_hd__tapvpwrvgnd_1
XTAP_188 vssd1 vccd1 sky130_fd_sc_hd__tapvpwrvgnd_1
XTAP_199 vssd1 vccd1 sky130_fd_sc_hd__tapvpwrvgnd_1
XFILLER_22_133 vssd1 vssd1 vccd1 vccd1 sky130_fd_sc_hd__fill_2
XFILLER_22_166 vssd1 vssd1 vccd1 vccd1 sky130_fd_sc_hd__decap_3
XFILLER_22_188 vssd1 vssd1 vccd1 vccd1 sky130_fd_sc_hd__fill_2
XFILLER_45_225 vssd1 vssd1 vccd1 vccd1 sky130_fd_sc_hd__decap_3
XFILLER_26_85 vssd1 vssd1 vccd1 vccd1 sky130_fd_sc_hd__decap_3
XFILLER_26_41 vssd1 vssd1 vccd1 vccd1 sky130_fd_sc_hd__decap_12
XFILLER_13_111 vssd1 vssd1 vccd1 vccd1 sky130_fd_sc_hd__fill_1
XFILLER_13_122 vssd1 vssd1 vccd1 vccd1 sky130_fd_sc_hd__fill_2
XFILLER_9_159 vssd1 vssd1 vccd1 vccd1 sky130_fd_sc_hd__fill_1
XFILLER_13_166 vssd1 vssd1 vccd1 vccd1 sky130_fd_sc_hd__fill_2
X_0985_ _0989_/A _0985_/B vssd1 vssd1 vccd1 vccd1 _0986_/A sky130_fd_sc_hd__and2_1
XFILLER_8_181 vssd1 vssd1 vccd1 vccd1 sky130_fd_sc_hd__fill_2
XFILLER_8_192 vssd1 vssd1 vccd1 vccd1 sky130_fd_sc_hd__decap_4
XFILLER_10_125 vssd1 vssd1 vccd1 vccd1 sky130_fd_sc_hd__decap_6
XFILLER_10_158 vssd1 vssd1 vccd1 vccd1 sky130_fd_sc_hd__fill_2
XFILLER_10_169 vssd1 vssd1 vccd1 vccd1 sky130_fd_sc_hd__fill_2
XFILLER_37_51 vssd1 vssd1 vccd1 vccd1 sky130_fd_sc_hd__decap_4
XFILLER_18_258 vssd1 vssd1 vccd1 vccd1 sky130_fd_sc_hd__fill_2
XFILLER_41_261 vssd1 vssd1 vccd1 vccd1 sky130_fd_sc_hd__decap_12
X_0770_ _0958_/B _0777_/D _0958_/C _0905_/D vssd1 vssd1 vccd1 vccd1 _0771_/A sky130_fd_sc_hd__or4_2
XFILLER_5_140 vssd1 vssd1 vccd1 vccd1 sky130_fd_sc_hd__fill_2
XFILLER_17_291 vssd1 vssd1 vccd1 vccd1 sky130_fd_sc_hd__fill_2
X_0968_ _1135_/Q _0973_/B vssd1 vssd1 vccd1 vccd1 _0968_/X sky130_fd_sc_hd__or2_1
X_0899_ _1105_/Q _1114_/Q _0899_/S vssd1 vssd1 vccd1 vccd1 _0900_/B sky130_fd_sc_hd__mux2_1
XFILLER_2_132 vssd1 vssd1 vccd1 vccd1 sky130_fd_sc_hd__fill_2
XFILLER_2_110 vssd1 vssd1 vccd1 vccd1 sky130_fd_sc_hd__fill_2
XFILLER_0_57 vssd1 vssd1 vccd1 vccd1 sky130_fd_sc_hd__fill_2
X_0822_ _0764_/A _0820_/X _0821_/X _0806_/X vssd1 vssd1 vccd1 vccd1 _1083_/D sky130_fd_sc_hd__o211a_1
XFILLER_14_250 vssd1 vssd1 vccd1 vccd1 sky130_fd_sc_hd__fill_2
X_0684_ _0681_/Y _0895_/B _0678_/B _0683_/X vssd1 vssd1 vccd1 vccd1 _0684_/X sky130_fd_sc_hd__a211o_1
X_0753_ _0753_/A _0753_/B vssd1 vssd1 vccd1 vccd1 _0753_/Y sky130_fd_sc_hd__nand2_1
X_1098_ _1161_/CLK _1098_/D vssd1 vssd1 vccd1 vccd1 _1098_/Q sky130_fd_sc_hd__dfxtp_1
XFILLER_20_220 vssd1 vssd1 vccd1 vccd1 sky130_fd_sc_hd__fill_2
XFILLER_20_242 vssd1 vssd1 vccd1 vccd1 sky130_fd_sc_hd__fill_1
XFILLER_20_253 vssd1 vssd1 vccd1 vccd1 sky130_fd_sc_hd__fill_1
XFILLER_18_64 vssd1 vssd1 vccd1 vccd1 sky130_fd_sc_hd__decap_4
XFILLER_34_85 vssd1 vssd1 vccd1 vccd1 sky130_fd_sc_hd__decap_4
XFILLER_34_41 vssd1 vssd1 vccd1 vccd1 sky130_fd_sc_hd__decap_12
XFILLER_11_231 vssd1 vssd1 vccd1 vccd1 sky130_fd_sc_hd__fill_1
XFILLER_7_268 vssd1 vssd1 vccd1 vccd1 sky130_fd_sc_hd__decap_12
XFILLER_38_139 vssd1 vssd1 vccd1 vccd1 sky130_fd_sc_hd__fill_1
X_1184__55 vssd1 vssd1 vccd1 vccd1 _1184__55/HI io_wbs_data_o[30] sky130_fd_sc_hd__conb_1
XFILLER_15_6 vssd1 vssd1 vccd1 vccd1 sky130_fd_sc_hd__decap_12
X_1021_ _1030_/A _1021_/B vssd1 vssd1 vccd1 vccd1 _1022_/A sky130_fd_sc_hd__or2_1
X_0805_ _1137_/Q _0805_/B vssd1 vssd1 vccd1 vccd1 _0805_/X sky130_fd_sc_hd__or2_1
X_0667_ _0883_/B _0690_/A _0682_/B vssd1 vssd1 vccd1 vccd1 _0668_/D sky130_fd_sc_hd__and3b_1
X_0736_ _0736_/A vssd1 vssd1 vccd1 vccd1 _1069_/D sky130_fd_sc_hd__clkbuf_1
X_0598_ _1121_/Q _0595_/Y _1071_/Q _0918_/A _0597_/X vssd1 vssd1 vccd1 vccd1 _0598_/X
+ sky130_fd_sc_hd__a221o_1
XFILLER_44_109 vssd1 vssd1 vccd1 vccd1 sky130_fd_sc_hd__decap_12
XFILLER_29_106 vssd1 vssd1 vccd1 vccd1 sky130_fd_sc_hd__decap_6
XFILLER_29_96 vssd1 vssd1 vccd1 vccd1 sky130_fd_sc_hd__decap_4
XANTENNA_input18_A io_wbs_m2s_data[7] vssd1 vssd1 vccd1 vccd1 sky130_fd_sc_hd__diode_2
XFILLER_45_51 vssd1 vssd1 vccd1 vccd1 sky130_fd_sc_hd__decap_4
XTAP_337 vssd1 vccd1 sky130_fd_sc_hd__tapvpwrvgnd_1
XTAP_326 vssd1 vccd1 sky130_fd_sc_hd__tapvpwrvgnd_1
XTAP_315 vssd1 vccd1 sky130_fd_sc_hd__tapvpwrvgnd_1
XTAP_304 vssd1 vccd1 sky130_fd_sc_hd__tapvpwrvgnd_1
XFILLER_3_293 vssd1 vssd1 vccd1 vccd1 sky130_fd_sc_hd__decap_6
XFILLER_13_3 vssd1 vssd1 vccd1 vccd1 sky130_fd_sc_hd__decap_12
XFILLER_34_197 vssd1 vssd1 vccd1 vccd1 sky130_fd_sc_hd__fill_1
X_1004_ _1148_/Q _1066_/Q _1047_/Q vssd1 vssd1 vccd1 vccd1 _1005_/B sky130_fd_sc_hd__mux2_1
X_0719_ _0750_/B vssd1 vssd1 vccd1 vccd1 _0746_/A sky130_fd_sc_hd__dlymetal6s2s_1
XFILLER_31_53 vssd1 vssd1 vccd1 vccd1 sky130_fd_sc_hd__decap_3
Xoutput31 _1082_/Q vssd1 vssd1 vccd1 vccd1 io_wbs_data_o[6] sky130_fd_sc_hd__buf_2
XFILLER_31_145 vssd1 vssd1 vccd1 vccd1 sky130_fd_sc_hd__decap_3
XFILLER_16_175 vssd1 vssd1 vccd1 vccd1 sky130_fd_sc_hd__fill_2
XANTENNA__0974__A1 input15/X vssd1 vssd1 vccd1 vccd1 sky130_fd_sc_hd__diode_2
XTAP_134 vssd1 vccd1 sky130_fd_sc_hd__tapvpwrvgnd_1
XTAP_123 vssd1 vccd1 sky130_fd_sc_hd__tapvpwrvgnd_1
XTAP_112 vssd1 vccd1 sky130_fd_sc_hd__tapvpwrvgnd_1
XTAP_101 vssd1 vccd1 sky130_fd_sc_hd__tapvpwrvgnd_1
XTAP_145 vssd1 vccd1 sky130_fd_sc_hd__tapvpwrvgnd_1
XTAP_156 vssd1 vccd1 sky130_fd_sc_hd__tapvpwrvgnd_1
XTAP_167 vssd1 vccd1 sky130_fd_sc_hd__tapvpwrvgnd_1
XTAP_178 vssd1 vccd1 sky130_fd_sc_hd__tapvpwrvgnd_1
XTAP_189 vssd1 vccd1 sky130_fd_sc_hd__tapvpwrvgnd_1
Xclkbuf_4_15_0_clock clkbuf_3_7_0_clock/X vssd1 vssd1 vccd1 vccd1 _1128_/CLK sky130_fd_sc_hd__clkbuf_2
XFILLER_22_178 vssd1 vssd1 vccd1 vccd1 sky130_fd_sc_hd__fill_2
XFILLER_26_97 vssd1 vssd1 vccd1 vccd1 sky130_fd_sc_hd__decap_4
XFILLER_26_53 vssd1 vssd1 vccd1 vccd1 sky130_fd_sc_hd__decap_12
XFILLER_42_85 vssd1 vssd1 vccd1 vccd1 sky130_fd_sc_hd__decap_12
XFILLER_42_41 vssd1 vssd1 vccd1 vccd1 sky130_fd_sc_hd__decap_12
XFILLER_3_57 vssd1 vssd1 vccd1 vccd1 sky130_fd_sc_hd__decap_12
XFILLER_36_226 vssd1 vssd1 vccd1 vccd1 sky130_fd_sc_hd__decap_12
X_0984_ _1142_/Q _1060_/Q _0984_/S vssd1 vssd1 vccd1 vccd1 _0985_/B sky130_fd_sc_hd__mux2_1
XFILLER_35_281 vssd1 vssd1 vccd1 vccd1 sky130_fd_sc_hd__decap_12
XFILLER_12_77 vssd1 vssd1 vccd1 vccd1 sky130_fd_sc_hd__decap_6
XFILLER_33_218 vssd1 vssd1 vccd1 vccd1 sky130_fd_sc_hd__decap_6
XFILLER_41_273 vssd1 vssd1 vccd1 vccd1 sky130_fd_sc_hd__decap_6
XFILLER_5_185 vssd1 vssd1 vccd1 vccd1 sky130_fd_sc_hd__fill_2
XFILLER_24_229 vssd1 vssd1 vccd1 vccd1 sky130_fd_sc_hd__fill_2
XFILLER_24_207 vssd1 vssd1 vccd1 vccd1 sky130_fd_sc_hd__fill_2
XFILLER_17_281 vssd1 vssd1 vccd1 vccd1 sky130_fd_sc_hd__decap_8
XFILLER_32_251 vssd1 vssd1 vccd1 vccd1 sky130_fd_sc_hd__fill_1
X_0967_ input12/X _0961_/X _0966_/X _0923_/X vssd1 vssd1 vccd1 vccd1 _1134_/D sky130_fd_sc_hd__o211a_1
X_0898_ _0898_/A vssd1 vssd1 vccd1 vccd1 _1104_/D sky130_fd_sc_hd__clkbuf_1
XFILLER_15_207 vssd1 vssd1 vccd1 vccd1 sky130_fd_sc_hd__fill_2
XFILLER_15_218 vssd1 vssd1 vccd1 vccd1 sky130_fd_sc_hd__fill_2
XFILLER_23_240 vssd1 vssd1 vccd1 vccd1 sky130_fd_sc_hd__fill_2
XFILLER_23_251 vssd1 vssd1 vccd1 vccd1 sky130_fd_sc_hd__fill_2
XFILLER_2_188 vssd1 vssd1 vccd1 vccd1 sky130_fd_sc_hd__decap_8
X_0821_ _1140_/Q _0821_/B vssd1 vssd1 vccd1 vccd1 _0821_/X sky130_fd_sc_hd__or2_1
XFILLER_9_67 vssd1 vssd1 vccd1 vccd1 sky130_fd_sc_hd__fill_2
XFILLER_14_262 vssd1 vssd1 vccd1 vccd1 sky130_fd_sc_hd__decap_4
X_0752_ _1074_/Q _1073_/Q _0752_/C vssd1 vssd1 vccd1 vccd1 _0753_/B sky130_fd_sc_hd__and3_1
XFILLER_43_3 vssd1 vssd1 vccd1 vccd1 sky130_fd_sc_hd__decap_12
X_0683_ _1057_/Q _1056_/Q _0683_/C _0683_/D vssd1 vssd1 vccd1 vccd1 _0683_/X sky130_fd_sc_hd__or4_1
XANTENNA__0838__A0 input13/X vssd1 vssd1 vccd1 vccd1 sky130_fd_sc_hd__diode_2
X_1097_ _1161_/CLK _1097_/D vssd1 vssd1 vccd1 vccd1 _1097_/Q sky130_fd_sc_hd__dfxtp_1
XFILLER_18_76 vssd1 vssd1 vccd1 vccd1 sky130_fd_sc_hd__fill_2
XFILLER_34_64 vssd1 vssd1 vccd1 vccd1 sky130_fd_sc_hd__fill_2
XFILLER_34_53 vssd1 vssd1 vccd1 vccd1 sky130_fd_sc_hd__decap_8
XFILLER_7_236 vssd1 vssd1 vccd1 vccd1 sky130_fd_sc_hd__fill_1
X_1020_ input14/X _1152_/Q _1029_/S vssd1 vssd1 vccd1 vccd1 _1021_/B sky130_fd_sc_hd__mux2_1
XFILLER_46_173 vssd1 vssd1 vccd1 vccd1 sky130_fd_sc_hd__decap_12
X_0804_ _0916_/A _0771_/X _0802_/X _0803_/X vssd1 vssd1 vccd1 vccd1 _0804_/X sky130_fd_sc_hd__o22a_1
X_0735_ _0735_/A _0735_/B _0897_/B vssd1 vssd1 vccd1 vccd1 _0736_/A sky130_fd_sc_hd__and3_1
X_0666_ _1121_/Q _0666_/B _1119_/Q _0666_/D vssd1 vssd1 vccd1 vccd1 _0682_/B sky130_fd_sc_hd__or4_2
X_0597_ _1117_/Q _1068_/Q vssd1 vssd1 vccd1 vccd1 _0597_/X sky130_fd_sc_hd__xor2_1
XFILLER_29_129 vssd1 vssd1 vccd1 vccd1 sky130_fd_sc_hd__fill_2
XFILLER_1_90 vssd1 vssd1 vccd1 vccd1 sky130_fd_sc_hd__decap_12
X_1149_ _1157_/CLK _1149_/D vssd1 vssd1 vccd1 vccd1 _1149_/Q sky130_fd_sc_hd__dfxtp_1
XFILLER_4_239 vssd1 vssd1 vccd1 vccd1 sky130_fd_sc_hd__fill_2
XFILLER_28_184 vssd1 vssd1 vccd1 vccd1 sky130_fd_sc_hd__decap_4
XFILLER_28_162 vssd1 vssd1 vccd1 vccd1 sky130_fd_sc_hd__fill_2
XTAP_338 vssd1 vccd1 sky130_fd_sc_hd__tapvpwrvgnd_1
XTAP_327 vssd1 vccd1 sky130_fd_sc_hd__tapvpwrvgnd_1
XTAP_316 vssd1 vccd1 sky130_fd_sc_hd__tapvpwrvgnd_1
XTAP_305 vssd1 vccd1 sky130_fd_sc_hd__tapvpwrvgnd_1
XFILLER_34_110 vssd1 vssd1 vccd1 vccd1 sky130_fd_sc_hd__fill_2
X_1003_ _1003_/A vssd1 vssd1 vccd1 vccd1 _1147_/D sky130_fd_sc_hd__clkbuf_1
XFILLER_19_140 vssd1 vssd1 vccd1 vccd1 sky130_fd_sc_hd__fill_2
XFILLER_34_143 vssd1 vssd1 vccd1 vccd1 sky130_fd_sc_hd__fill_2
X_0718_ _0828_/A _0690_/A _0580_/C _0717_/Y vssd1 vssd1 vccd1 vccd1 _0750_/B sky130_fd_sc_hd__a31o_1
Xclkbuf_4_11_0_clock clkbuf_3_5_0_clock/X vssd1 vssd1 vccd1 vccd1 _1142_/CLK sky130_fd_sc_hd__clkbuf_2
X_0649_ _0916_/A _0666_/D vssd1 vssd1 vccd1 vccd1 _0650_/B sky130_fd_sc_hd__nand2_1
XFILLER_25_110 vssd1 vssd1 vccd1 vccd1 sky130_fd_sc_hd__fill_2
XFILLER_40_168 vssd1 vssd1 vccd1 vccd1 sky130_fd_sc_hd__fill_1
XFILLER_31_65 vssd1 vssd1 vccd1 vccd1 sky130_fd_sc_hd__decap_6
XFILLER_31_87 vssd1 vssd1 vccd1 vccd1 sky130_fd_sc_hd__fill_2
Xoutput32 _1083_/Q vssd1 vssd1 vccd1 vccd1 io_wbs_data_o[7] sky130_fd_sc_hd__buf_2
XFILLER_0_220 vssd1 vssd1 vccd1 vccd1 sky130_fd_sc_hd__decap_4
XFILLER_0_231 vssd1 vssd1 vccd1 vccd1 sky130_fd_sc_hd__decap_12
XFILLER_0_253 vssd1 vssd1 vccd1 vccd1 sky130_fd_sc_hd__decap_8
XFILLER_16_154 vssd1 vssd1 vccd1 vccd1 sky130_fd_sc_hd__decap_4
XFILLER_16_165 vssd1 vssd1 vccd1 vccd1 sky130_fd_sc_hd__fill_2
XFILLER_39_202 vssd1 vssd1 vccd1 vccd1 sky130_fd_sc_hd__fill_2
XTAP_135 vssd1 vccd1 sky130_fd_sc_hd__tapvpwrvgnd_1
XTAP_124 vssd1 vccd1 sky130_fd_sc_hd__tapvpwrvgnd_1
XTAP_113 vssd1 vccd1 sky130_fd_sc_hd__tapvpwrvgnd_1
XTAP_102 vssd1 vccd1 sky130_fd_sc_hd__tapvpwrvgnd_1
XTAP_146 vssd1 vccd1 sky130_fd_sc_hd__tapvpwrvgnd_1
XTAP_157 vssd1 vccd1 sky130_fd_sc_hd__tapvpwrvgnd_1
XTAP_168 vssd1 vccd1 sky130_fd_sc_hd__tapvpwrvgnd_1
XTAP_179 vssd1 vccd1 sky130_fd_sc_hd__tapvpwrvgnd_1
XFILLER_39_279 vssd1 vssd1 vccd1 vccd1 sky130_fd_sc_hd__fill_1
XFILLER_22_157 vssd1 vssd1 vccd1 vccd1 sky130_fd_sc_hd__decap_4
XFILLER_45_205 vssd1 vssd1 vccd1 vccd1 sky130_fd_sc_hd__decap_12
XFILLER_42_53 vssd1 vssd1 vccd1 vccd1 sky130_fd_sc_hd__decap_12
XFILLER_26_65 vssd1 vssd1 vccd1 vccd1 sky130_fd_sc_hd__fill_1
XFILLER_13_113 vssd1 vssd1 vccd1 vccd1 sky130_fd_sc_hd__decap_4
XFILLER_42_97 vssd1 vssd1 vccd1 vccd1 sky130_fd_sc_hd__decap_12
XFILLER_3_69 vssd1 vssd1 vccd1 vccd1 sky130_fd_sc_hd__decap_8
XFILLER_36_238 vssd1 vssd1 vccd1 vccd1 sky130_fd_sc_hd__decap_12
XFILLER_44_293 vssd1 vssd1 vccd1 vccd1 sky130_fd_sc_hd__fill_1
X_0983_ _0983_/A vssd1 vssd1 vccd1 vccd1 _1141_/D sky130_fd_sc_hd__clkbuf_1
XFILLER_35_293 vssd1 vssd1 vccd1 vccd1 sky130_fd_sc_hd__decap_6
XFILLER_18_205 vssd1 vssd1 vccd1 vccd1 sky130_fd_sc_hd__decap_4
XFILLER_18_227 vssd1 vssd1 vccd1 vccd1 sky130_fd_sc_hd__fill_2
XFILLER_18_238 vssd1 vssd1 vccd1 vccd1 sky130_fd_sc_hd__decap_3
XFILLER_45_7 vssd1 vssd1 vccd1 vccd1 sky130_fd_sc_hd__fill_2
XFILLER_5_197 vssd1 vssd1 vccd1 vccd1 sky130_fd_sc_hd__decap_3
XFILLER_5_120 vssd1 vssd1 vccd1 vccd1 sky130_fd_sc_hd__fill_2
X_0966_ _1134_/Q _0973_/B vssd1 vssd1 vccd1 vccd1 _0966_/X sky130_fd_sc_hd__or2_1
X_0897_ _0655_/X _0897_/B vssd1 vssd1 vccd1 vccd1 _0898_/A sky130_fd_sc_hd__and2b_1
XFILLER_23_55 vssd1 vssd1 vccd1 vccd1 sky130_fd_sc_hd__fill_1
XFILLER_23_263 vssd1 vssd1 vccd1 vccd1 sky130_fd_sc_hd__decap_12
XFILLER_3_3 vssd1 vssd1 vccd1 vccd1 sky130_fd_sc_hd__decap_12
XFILLER_2_123 vssd1 vssd1 vccd1 vccd1 sky130_fd_sc_hd__decap_4
XFILLER_0_15 vssd1 vssd1 vccd1 vccd1 sky130_fd_sc_hd__decap_12
XFILLER_9_35 vssd1 vssd1 vccd1 vccd1 sky130_fd_sc_hd__decap_3
X_0820_ _1122_/Q _0771_/A _0818_/X _0819_/X vssd1 vssd1 vccd1 vccd1 _0820_/X sky130_fd_sc_hd__o22a_1
X_0751_ _0749_/Y _0747_/C _0750_/X _0958_/A _1047_/D vssd1 vssd1 vccd1 vccd1 _1073_/D
+ sky130_fd_sc_hd__a2111oi_1
XFILLER_36_3 vssd1 vssd1 vccd1 vccd1 sky130_fd_sc_hd__decap_12
X_0682_ _1122_/Q _0682_/B vssd1 vssd1 vccd1 vccd1 _0895_/B sky130_fd_sc_hd__or2_2
X_1096_ _1096_/CLK _1096_/D vssd1 vssd1 vccd1 vccd1 _1096_/Q sky130_fd_sc_hd__dfxtp_1
X_0949_ input17/X _1129_/Q _0952_/S vssd1 vssd1 vccd1 vccd1 _0950_/B sky130_fd_sc_hd__mux2_1
XFILLER_7_259 vssd1 vssd1 vccd1 vccd1 sky130_fd_sc_hd__fill_2
XFILLER_46_185 vssd1 vssd1 vccd1 vccd1 sky130_fd_sc_hd__decap_8
XFILLER_46_141 vssd1 vssd1 vccd1 vccd1 sky130_fd_sc_hd__decap_12
X_0803_ _1090_/Q _0786_/X _0787_/X vssd1 vssd1 vccd1 vccd1 _0803_/X sky130_fd_sc_hd__a21o_1
X_0665_ _0666_/B _0916_/A _0666_/D _1121_/Q vssd1 vssd1 vccd1 vccd1 _0883_/B sky130_fd_sc_hd__o31a_1
X_0734_ _0888_/A _1047_/D vssd1 vssd1 vccd1 vccd1 _0897_/B sky130_fd_sc_hd__nor2_2
XANTENNA__0756__B1 _0888_/A vssd1 vssd1 vccd1 vccd1 sky130_fd_sc_hd__diode_2
X_1175__46 vssd1 vssd1 vccd1 vccd1 _1175__46/HI io_wbs_data_o[21] sky130_fd_sc_hd__conb_1
X_0596_ _1120_/Q vssd1 vssd1 vccd1 vccd1 _0918_/A sky130_fd_sc_hd__inv_2
XFILLER_37_185 vssd1 vssd1 vccd1 vccd1 sky130_fd_sc_hd__fill_2
X_1148_ _1148_/CLK _1148_/D vssd1 vssd1 vccd1 vccd1 _1148_/Q sky130_fd_sc_hd__dfxtp_1
X_1079_ _1087_/CLK _1079_/D vssd1 vssd1 vccd1 vccd1 _1079_/Q sky130_fd_sc_hd__dfxtp_1
XFILLER_4_218 vssd1 vssd1 vccd1 vccd1 sky130_fd_sc_hd__fill_2
XFILLER_29_54 vssd1 vssd1 vccd1 vccd1 sky130_fd_sc_hd__fill_2
XFILLER_28_130 vssd1 vssd1 vccd1 vccd1 sky130_fd_sc_hd__fill_2
XFILLER_43_111 vssd1 vssd1 vccd1 vccd1 sky130_fd_sc_hd__fill_1
XTAP_328 vssd1 vccd1 sky130_fd_sc_hd__tapvpwrvgnd_1
XTAP_317 vssd1 vccd1 sky130_fd_sc_hd__tapvpwrvgnd_1
XTAP_306 vssd1 vccd1 sky130_fd_sc_hd__tapvpwrvgnd_1
XFILLER_34_155 vssd1 vssd1 vccd1 vccd1 sky130_fd_sc_hd__decap_3
XFILLER_34_133 vssd1 vssd1 vccd1 vccd1 sky130_fd_sc_hd__decap_6
X_1002_ _1005_/A _1002_/B vssd1 vssd1 vccd1 vccd1 _1003_/A sky130_fd_sc_hd__and2_1
XANTENNA__1076__D _1076_/D vssd1 vssd1 vccd1 vccd1 sky130_fd_sc_hd__diode_2
X_0648_ _0916_/A _0666_/D vssd1 vssd1 vccd1 vccd1 _0657_/B sky130_fd_sc_hd__nor2_1
X_0717_ _1104_/Q input1/X vssd1 vssd1 vccd1 vccd1 _0717_/Y sky130_fd_sc_hd__nor2_1
X_0579_ _1087_/Q _0832_/A vssd1 vssd1 vccd1 vccd1 _0580_/C sky130_fd_sc_hd__nor2_1
XFILLER_25_166 vssd1 vssd1 vccd1 vccd1 sky130_fd_sc_hd__fill_2
XFILLER_25_122 vssd1 vssd1 vccd1 vccd1 sky130_fd_sc_hd__decap_3
Xoutput22 _1114_/Q vssd1 vssd1 vccd1 vccd1 io_txd sky130_fd_sc_hd__buf_2
XFILLER_0_243 vssd1 vssd1 vccd1 vccd1 sky130_fd_sc_hd__decap_8
XFILLER_0_298 vssd1 vssd1 vccd1 vccd1 sky130_fd_sc_hd__fill_1
XFILLER_16_111 vssd1 vssd1 vccd1 vccd1 sky130_fd_sc_hd__fill_2
XFILLER_31_158 vssd1 vssd1 vccd1 vccd1 sky130_fd_sc_hd__fill_2
XFILLER_16_199 vssd1 vssd1 vccd1 vccd1 sky130_fd_sc_hd__fill_2
XTAP_114 vssd1 vccd1 sky130_fd_sc_hd__tapvpwrvgnd_1
XTAP_103 vssd1 vccd1 sky130_fd_sc_hd__tapvpwrvgnd_1
XFILLER_39_225 vssd1 vssd1 vccd1 vccd1 sky130_fd_sc_hd__decap_12
XTAP_125 vssd1 vccd1 sky130_fd_sc_hd__tapvpwrvgnd_1
XTAP_136 vssd1 vccd1 sky130_fd_sc_hd__tapvpwrvgnd_1
XTAP_147 vssd1 vccd1 sky130_fd_sc_hd__tapvpwrvgnd_1
XTAP_158 vssd1 vccd1 sky130_fd_sc_hd__tapvpwrvgnd_1
XTAP_169 vssd1 vccd1 sky130_fd_sc_hd__tapvpwrvgnd_1
XFILLER_45_217 vssd1 vssd1 vccd1 vccd1 sky130_fd_sc_hd__decap_6
XFILLER_42_65 vssd1 vssd1 vccd1 vccd1 sky130_fd_sc_hd__decap_12
Xclkbuf_4_9_0_clock clkbuf_4_9_0_clock/A vssd1 vssd1 vccd1 vccd1 _1148_/CLK sky130_fd_sc_hd__clkbuf_2
XFILLER_21_191 vssd1 vssd1 vccd1 vccd1 sky130_fd_sc_hd__fill_2
XFILLER_36_217 vssd1 vssd1 vccd1 vccd1 sky130_fd_sc_hd__fill_2
XFILLER_36_206 vssd1 vssd1 vccd1 vccd1 sky130_fd_sc_hd__fill_2
XFILLER_3_15 vssd1 vssd1 vccd1 vccd1 sky130_fd_sc_hd__decap_12
X_0982_ _0989_/A _0982_/B vssd1 vssd1 vccd1 vccd1 _0983_/A sky130_fd_sc_hd__and2_1
XANTENNA__0801__C1 _0729_/X vssd1 vssd1 vccd1 vccd1 sky130_fd_sc_hd__diode_2
XFILLER_42_209 vssd1 vssd1 vccd1 vccd1 sky130_fd_sc_hd__decap_12
XFILLER_27_217 vssd1 vssd1 vccd1 vccd1 sky130_fd_sc_hd__fill_2
XFILLER_35_261 vssd1 vssd1 vccd1 vccd1 sky130_fd_sc_hd__decap_12
XFILLER_10_139 vssd1 vssd1 vccd1 vccd1 sky130_fd_sc_hd__fill_1
XFILLER_12_13 vssd1 vssd1 vccd1 vccd1 sky130_fd_sc_hd__decap_12
XFILLER_32_297 vssd1 vssd1 vccd1 vccd1 sky130_fd_sc_hd__fill_2
XFILLER_32_253 vssd1 vssd1 vccd1 vccd1 sky130_fd_sc_hd__decap_12
X_0965_ input11/X _0961_/X _0964_/X _0923_/X vssd1 vssd1 vccd1 vccd1 _1133_/D sky130_fd_sc_hd__o211a_1
X_0896_ _0894_/X _0895_/Y _0592_/X vssd1 vssd1 vccd1 vccd1 _1103_/D sky130_fd_sc_hd__o21a_1
XFILLER_23_89 vssd1 vssd1 vccd1 vccd1 sky130_fd_sc_hd__fill_2
XFILLER_23_275 vssd1 vssd1 vccd1 vccd1 sky130_fd_sc_hd__decap_4
XFILLER_0_27 vssd1 vssd1 vccd1 vccd1 sky130_fd_sc_hd__fill_1
Xclkbuf_3_6_0_clock clkbuf_0_clock/X vssd1 vssd1 vccd1 vccd1 clkbuf_3_6_0_clock/X
+ sky130_fd_sc_hd__clkbuf_2
X_0681_ _1058_/Q vssd1 vssd1 vccd1 vccd1 _0681_/Y sky130_fd_sc_hd__inv_2
X_0750_ _1073_/Q _0750_/B _0752_/C vssd1 vssd1 vccd1 vccd1 _0750_/X sky130_fd_sc_hd__and3_1
XFILLER_29_3 vssd1 vssd1 vccd1 vccd1 sky130_fd_sc_hd__decap_12
X_1095_ _1096_/CLK _1095_/D vssd1 vssd1 vccd1 vccd1 _1095_/Q sky130_fd_sc_hd__dfxtp_1
X_0948_ _1007_/A vssd1 vssd1 vccd1 vccd1 _0989_/A sky130_fd_sc_hd__dlymetal6s2s_1
XANTENNA__1079__D _1079_/D vssd1 vssd1 vccd1 vccd1 sky130_fd_sc_hd__diode_2
X_0879_ _0891_/C _0878_/Y _0888_/A vssd1 vssd1 vccd1 vccd1 _0879_/X sky130_fd_sc_hd__a21o_1
XFILLER_18_56 vssd1 vssd1 vccd1 vccd1 sky130_fd_sc_hd__decap_3
XFILLER_34_99 vssd1 vssd1 vccd1 vccd1 sky130_fd_sc_hd__fill_2
XFILLER_11_278 vssd1 vssd1 vccd1 vccd1 sky130_fd_sc_hd__fill_2
XFILLER_38_109 vssd1 vssd1 vccd1 vccd1 sky130_fd_sc_hd__decap_12
XFILLER_46_197 vssd1 vssd1 vccd1 vccd1 sky130_fd_sc_hd__fill_2
XFILLER_46_153 vssd1 vssd1 vccd1 vccd1 sky130_fd_sc_hd__decap_12
X_0802_ _1145_/Q _0802_/B _0802_/C vssd1 vssd1 vccd1 vccd1 _0802_/X sky130_fd_sc_hd__and3_1