*SPEF "ieee 1481-1999"
*DESIGN "SPI"
*DATE "11:11:11 Fri 11 11, 1111"
*VENDOR "OpenRCX"
*PROGRAM "Parallel Extraction"
*VERSION "1.0"
*DESIGN_FLOW "NAME_SCOPE LOCAL" "PIN_CAP NONE"
*DIVIDER /
*DELIMITER :
*BUS_DELIMITER []
*T_UNIT 1 NS
*C_UNIT 1 PF
*R_UNIT 1 OHM
*L_UNIT 1 HENRY

*NAME_MAP
*1 clock
*2 io_spi_clk
*3 io_spi_cs
*4 io_spi_intr
*5 io_spi_miso
*6 io_spi_mosi
*7 io_spi_select
*8 io_wbs_ack_o
*9 io_wbs_data_o[0]
*10 net37
*11 net38
*12 net39
*13 net40
*14 net41
*15 net42
*16 net43
*17 net44
*18 net45
*19 net46
*20 io_wbs_data_o[1]
*21 net47
*22 net48
*23 net49
*24 net50
*25 net51
*26 net52
*27 net53
*28 net54
*29 net55
*30 net56
*31 io_wbs_data_o[2]
*32 net57
*33 net58
*34 io_wbs_data_o[3]
*35 io_wbs_data_o[4]
*36 io_wbs_data_o[5]
*37 io_wbs_data_o[6]
*38 io_wbs_data_o[7]
*39 net35
*40 net36
*41 io_wbs_m2s_addr[0]
*42 io_wbs_m2s_addr[10]
*43 io_wbs_m2s_addr[11]
*44 io_wbs_m2s_addr[12]
*45 io_wbs_m2s_addr[13]
*46 io_wbs_m2s_addr[14]
*47 io_wbs_m2s_addr[15]
*48 io_wbs_m2s_addr[1]
*49 io_wbs_m2s_addr[2]
*50 io_wbs_m2s_addr[3]
*51 io_wbs_m2s_addr[4]
*52 io_wbs_m2s_addr[5]
*53 io_wbs_m2s_addr[6]
*54 io_wbs_m2s_addr[7]
*55 io_wbs_m2s_addr[8]
*56 io_wbs_m2s_addr[9]
*57 io_wbs_m2s_data[0]
*58 io_wbs_m2s_data[10]
*59 io_wbs_m2s_data[11]
*60 io_wbs_m2s_data[12]
*61 io_wbs_m2s_data[13]
*62 io_wbs_m2s_data[14]
*63 io_wbs_m2s_data[15]
*64 io_wbs_m2s_data[16]
*65 io_wbs_m2s_data[17]
*66 io_wbs_m2s_data[18]
*67 io_wbs_m2s_data[19]
*68 io_wbs_m2s_data[1]
*69 io_wbs_m2s_data[20]
*70 io_wbs_m2s_data[21]
*71 io_wbs_m2s_data[22]
*72 io_wbs_m2s_data[23]
*73 io_wbs_m2s_data[24]
*74 io_wbs_m2s_data[25]
*75 io_wbs_m2s_data[26]
*76 io_wbs_m2s_data[27]
*77 io_wbs_m2s_data[28]
*78 io_wbs_m2s_data[29]
*79 io_wbs_m2s_data[2]
*80 io_wbs_m2s_data[30]
*81 io_wbs_m2s_data[31]
*82 io_wbs_m2s_data[3]
*83 io_wbs_m2s_data[4]
*84 io_wbs_m2s_data[5]
*85 io_wbs_m2s_data[6]
*86 io_wbs_m2s_data[7]
*87 io_wbs_m2s_data[8]
*88 io_wbs_m2s_data[9]
*89 io_wbs_m2s_stb
*90 io_wbs_m2s_we
*91 reset
*94 _000_
*95 _001_
*96 _002_
*97 _003_
*98 _004_
*99 _005_
*100 _006_
*101 _007_
*102 _008_
*103 _009_
*104 _010_
*105 _011_
*106 _012_
*107 _013_
*108 _014_
*109 _015_
*110 _016_
*111 _017_
*112 _018_
*113 _019_
*114 _020_
*115 _021_
*116 _022_
*117 _023_
*118 _024_
*119 _025_
*120 _026_
*121 _027_
*122 _028_
*123 _029_
*124 _030_
*125 _031_
*126 _032_
*127 _033_
*128 _034_
*129 _035_
*130 _036_
*131 _037_
*132 _038_
*133 _039_
*134 _040_
*135 _041_
*136 _042_
*137 _043_
*138 _044_
*139 _045_
*140 _046_
*141 _047_
*142 _048_
*143 _049_
*144 _050_
*145 _051_
*146 _052_
*147 _053_
*148 _054_
*149 _055_
*150 _056_
*151 _057_
*152 _058_
*153 _059_
*154 _060_
*155 _061_
*156 _062_
*157 _063_
*158 _064_
*159 _065_
*160 _066_
*161 _067_
*162 _068_
*163 _069_
*164 _070_
*165 _071_
*166 _072_
*167 _073_
*168 _074_
*169 _075_
*170 _076_
*171 _077_
*172 _078_
*173 _079_
*174 _080_
*175 _081_
*176 _082_
*177 _083_
*178 _084_
*179 _085_
*180 _086_
*181 _087_
*182 _088_
*183 _089_
*184 _090_
*185 _091_
*186 _092_
*187 _093_
*188 _094_
*189 _095_
*190 _096_
*191 _097_
*192 _098_
*193 _099_
*194 _100_
*195 _101_
*196 _102_
*197 _103_
*198 _104_
*199 _105_
*200 _106_
*201 _107_
*202 _108_
*203 _109_
*204 _110_
*205 _111_
*206 _112_
*207 _113_
*208 _114_
*209 _115_
*210 _116_
*211 _117_
*212 _118_
*213 _119_
*214 _120_
*215 _121_
*216 _122_
*217 _123_
*218 _124_
*219 _125_
*220 _126_
*221 _127_
*222 _128_
*223 _129_
*224 _130_
*225 _131_
*226 _132_
*227 _133_
*228 _134_
*229 _135_
*230 _136_
*231 _137_
*232 _138_
*233 _139_
*234 _140_
*235 _141_
*236 _142_
*237 _143_
*238 _144_
*239 _145_
*240 _146_
*241 _147_
*242 _148_
*243 _149_
*244 _150_
*245 _151_
*246 _152_
*247 _153_
*248 _154_
*249 _155_
*250 _156_
*251 _157_
*252 _158_
*253 _159_
*254 _160_
*255 _161_
*256 _162_
*257 _163_
*258 _164_
*259 _165_
*260 _166_
*261 _167_
*262 _168_
*263 _169_
*264 _170_
*265 _171_
*266 _172_
*267 _173_
*268 _174_
*269 _175_
*270 _176_
*271 _177_
*272 _178_
*273 _179_
*274 _180_
*275 _181_
*276 _182_
*277 _183_
*278 _184_
*279 _185_
*280 _186_
*281 _187_
*282 _188_
*283 _189_
*284 _190_
*285 _191_
*286 _192_
*287 _193_
*288 _194_
*289 _195_
*290 _196_
*291 _197_
*292 _198_
*293 _199_
*294 _200_
*295 _201_
*296 _202_
*297 _203_
*298 _204_
*299 _205_
*300 _206_
*301 _207_
*302 _208_
*303 _209_
*304 _210_
*305 _211_
*306 _212_
*307 _213_
*308 _214_
*309 _215_
*310 _216_
*311 _217_
*312 _218_
*313 _219_
*314 _220_
*315 _221_
*316 _222_
*317 _223_
*318 _224_
*319 _225_
*320 _226_
*321 _227_
*322 _228_
*323 _229_
*324 _230_
*325 _231_
*326 _232_
*327 _233_
*328 _234_
*329 _235_
*330 _236_
*331 _237_
*332 _238_
*333 _239_
*334 _240_
*335 _241_
*336 _242_
*337 _243_
*338 _244_
*339 _245_
*340 _246_
*341 _247_
*342 _248_
*343 _249_
*344 _250_
*345 _251_
*346 _252_
*347 _253_
*348 _254_
*349 _255_
*350 _256_
*351 _257_
*352 _258_
*353 _259_
*354 _260_
*355 _261_
*356 _262_
*357 _263_
*358 _264_
*359 _265_
*360 _266_
*361 _267_
*362 _268_
*363 _269_
*364 _270_
*365 _271_
*366 _272_
*367 _273_
*368 _274_
*369 _275_
*370 _276_
*371 _277_
*372 _278_
*373 _279_
*374 _280_
*375 _281_
*376 _282_
*377 _283_
*378 _284_
*379 _285_
*380 _286_
*381 _287_
*382 _288_
*383 _289_
*384 _290_
*385 _291_
*386 _292_
*387 _293_
*388 _294_
*389 _295_
*390 _296_
*391 _297_
*392 _298_
*393 _299_
*394 _300_
*395 _301_
*396 _302_
*397 _303_
*398 _304_
*399 _305_
*400 _306_
*401 _307_
*402 _308_
*403 _309_
*404 _310_
*405 _311_
*406 _312_
*407 _313_
*408 _314_
*409 _GEN_43\[2\]
*410 _GEN_43\[3\]
*411 _GEN_43\[4\]
*412 _GEN_43\[5\]
*413 _GEN_43\[6\]
*414 _GEN_43\[7\]
*415 _T_203\[1\]
*416 _T_203\[2\]
*417 _T_203\[3\]
*418 _T_203\[4\]
*419 _T_203\[5\]
*420 _T_203\[6\]
*421 _T_203\[7\]
*422 _T_203\[8\]
*423 _T_321
*424 _T_328\[1\]
*425 _T_328\[2\]
*426 _T_328\[3\]
*427 _T_328\[4\]
*428 _T_328\[5\]
*429 _T_328\[6\]
*430 _T_328\[7\]
*431 _T_341
*432 bit_e
*433 bit_ie
*434 bit_iroe
*435 bit_irrdy
*436 bit_itoe
*437 bit_itrdy
*438 bit_roe
*439 bit_rrdy
*440 bit_sso
*441 bit_tmt
*442 bit_toe
*443 bit_trdy
*444 clknet_0_clock
*445 clknet_1_0_0_clock
*446 clknet_1_1_0_clock
*447 clknet_2_0_0_clock
*448 clknet_2_1_0_clock
*449 clknet_2_2_0_clock
*450 clknet_2_3_0_clock
*451 clknet_3_0_0_clock
*452 clknet_3_1_0_clock
*453 clknet_3_2_0_clock
*454 clknet_3_3_0_clock
*455 clknet_3_4_0_clock
*456 clknet_3_5_0_clock
*457 clknet_3_6_0_clock
*458 clknet_3_7_0_clock
*459 clock_cnt\[0\]
*460 clock_cnt\[1\]
*461 clock_cnt\[2\]
*462 clock_cnt\[3\]
*463 clock_cnt\[4\]
*464 data_cnt\[0\]
*465 data_cnt\[1\]
*466 data_cnt\[2\]
*467 data_cnt\[3\]
*468 data_cnt\[4\]
*469 data_cnt\[5\]
*470 n_status\[0\]
*471 n_status\[1\]
*472 n_status\[2\]
*473 net1
*474 net10
*475 net11
*476 net12
*477 net13
*478 net14
*479 net15
*480 net16
*481 net17
*482 net18
*483 net19
*484 net2
*485 net20
*486 net21
*487 net22
*488 net23
*489 net24
*490 net25
*491 net26
*492 net27
*493 net28
*494 net29
*495 net3
*496 net30
*497 net31
*498 net32
*499 net33
*500 net34
*501 net4
*502 net5
*503 net6
*504 net7
*505 net8
*506 net9
*507 p_status\[0\]
*508 p_status\[1\]
*509 p_status\[2\]
*510 pending_data
*511 read_wait_done
*512 reg_rxdata\[0\]
*513 reg_rxdata\[1\]
*514 reg_rxdata\[2\]
*515 reg_rxdata\[3\]
*516 reg_rxdata\[4\]
*517 reg_rxdata\[5\]
*518 reg_rxdata\[6\]
*519 reg_rxdata\[7\]
*520 reg_ssmask
*521 rx_latch_flag
*522 wait_one_tick_done
*523 ANTENNA__329__B
*524 ANTENNA__428__A
*525 ANTENNA__431__A
*526 ANTENNA__434__A
*527 ANTENNA__444__A
*528 ANTENNA__450__A
*529 ANTENNA_clkbuf_0_clock_A
*530 ANTENNA_input10_A
*531 ANTENNA_input11_A
*532 ANTENNA_input12_A
*533 ANTENNA_input13_A
*534 ANTENNA_input14_A
*535 ANTENNA_input15_A
*536 ANTENNA_input16_A
*537 ANTENNA_input17_A
*538 ANTENNA_input18_A
*539 ANTENNA_input19_A
*540 ANTENNA_input1_A
*541 ANTENNA_input20_A
*542 ANTENNA_input21_A
*543 ANTENNA_input2_A
*544 ANTENNA_input3_A
*545 ANTENNA_input4_A
*546 ANTENNA_input5_A
*547 ANTENNA_input6_A
*548 ANTENNA_input7_A
*549 ANTENNA_input8_A
*550 ANTENNA_input9_A
*551 FILLER_0_104
*552 FILLER_0_110
*553 FILLER_0_113
*554 FILLER_0_123
*555 FILLER_0_128
*556 FILLER_0_13
*557 FILLER_0_132
*558 FILLER_0_138
*559 FILLER_0_141
*560 FILLER_0_159
*561 FILLER_0_165
*562 FILLER_0_169
*563 FILLER_0_175
*564 FILLER_0_18
*565 FILLER_0_182
*566 FILLER_0_188
*567 FILLER_0_22
*568 FILLER_0_26
*569 FILLER_0_29
*570 FILLER_0_34
*571 FILLER_0_38
*572 FILLER_0_42
*573 FILLER_0_54
*574 FILLER_0_57
*575 FILLER_0_68
*576 FILLER_0_72
*577 FILLER_0_77
*578 FILLER_0_82
*579 FILLER_0_85
*580 FILLER_0_93
*581 FILLER_0_99
*582 FILLER_10_108
*583 FILLER_10_114
*584 FILLER_10_12
*585 FILLER_10_123
*586 FILLER_10_132
*587 FILLER_10_138
*588 FILLER_10_149
*589 FILLER_10_155
*590 FILLER_10_159
*591 FILLER_10_163
*592 FILLER_10_174
*593 FILLER_10_188
*594 FILLER_10_23
*595 FILLER_10_27
*596 FILLER_10_29
*597 FILLER_10_3
*598 FILLER_10_39
*599 FILLER_10_51
*600 FILLER_10_56
*601 FILLER_10_63
*602 FILLER_10_67
*603 FILLER_10_77
*604 FILLER_10_83
*605 FILLER_10_95
*606 FILLER_11_109
*607 FILLER_11_117
*608 FILLER_11_12
*609 FILLER_11_127
*610 FILLER_11_137
*611 FILLER_11_148
*612 FILLER_11_166
*613 FILLER_11_169
*614 FILLER_11_186
*615 FILLER_11_24
*616 FILLER_11_28
*617 FILLER_11_45
*618 FILLER_11_52
*619 FILLER_11_7
*620 FILLER_11_73
*621 FILLER_11_82
*622 FILLER_11_91
*623 FILLER_12_109
*624 FILLER_12_117
*625 FILLER_12_122
*626 FILLER_12_126
*627 FILLER_12_134
*628 FILLER_12_138
*629 FILLER_12_150
*630 FILLER_12_154
*631 FILLER_12_158
*632 FILLER_12_162
*633 FILLER_12_169
*634 FILLER_12_174
*635 FILLER_12_179
*636 FILLER_12_186
*637 FILLER_12_21
*638 FILLER_12_26
*639 FILLER_12_29
*640 FILLER_12_3
*641 FILLER_12_41
*642 FILLER_12_47
*643 FILLER_12_53
*644 FILLER_12_57
*645 FILLER_12_63
*646 FILLER_12_67
*647 FILLER_12_72
*648 FILLER_12_80
*649 FILLER_12_90
*650 FILLER_12_97
*651 FILLER_13_109
*652 FILLER_13_129
*653 FILLER_13_134
*654 FILLER_13_141
*655 FILLER_13_145
*656 FILLER_13_153
*657 FILLER_13_16
*658 FILLER_13_160
*659 FILLER_13_166
*660 FILLER_13_174
*661 FILLER_13_182
*662 FILLER_13_188
*663 FILLER_13_21
*664 FILLER_13_29
*665 FILLER_13_3
*666 FILLER_13_36
*667 FILLER_13_54
*668 FILLER_13_57
*669 FILLER_13_61
*670 FILLER_13_69
*671 FILLER_13_87
*672 FILLER_14_10
*673 FILLER_14_103
*674 FILLER_14_109
*675 FILLER_14_119
*676 FILLER_14_137
*677 FILLER_14_14
*678 FILLER_14_157
*679 FILLER_14_170
*680 FILLER_14_188
*681 FILLER_14_26
*682 FILLER_14_29
*683 FILLER_14_35
*684 FILLER_14_40
*685 FILLER_14_44
*686 FILLER_14_49
*687 FILLER_14_54
*688 FILLER_14_6
*689 FILLER_14_72
*690 FILLER_14_78
*691 FILLER_14_82
*692 FILLER_14_85
*693 FILLER_15_104
*694 FILLER_15_110
*695 FILLER_15_113
*696 FILLER_15_121
*697 FILLER_15_135
*698 FILLER_15_141
*699 FILLER_15_159
*700 FILLER_15_165
*701 FILLER_15_185
*702 FILLER_15_189
*703 FILLER_15_23
*704 FILLER_15_29
*705 FILLER_15_3
*706 FILLER_15_46
*707 FILLER_15_52
*708 FILLER_15_57
*709 FILLER_15_65
*710 FILLER_15_71
*711 FILLER_15_76
*712 FILLER_15_88
*713 FILLER_15_98
*714 FILLER_16_101
*715 FILLER_16_108
*716 FILLER_16_114
*717 FILLER_16_129
*718 FILLER_16_135
*719 FILLER_16_139
*720 FILLER_16_141
*721 FILLER_16_151
*722 FILLER_16_155
*723 FILLER_16_161
*724 FILLER_16_17
*725 FILLER_16_172
*726 FILLER_16_176
*727 FILLER_16_179
*728 FILLER_16_183
*729 FILLER_16_188
*730 FILLER_16_26
*731 FILLER_16_34
*732 FILLER_16_40
*733 FILLER_16_46
*734 FILLER_16_51
*735 FILLER_16_6
*736 FILLER_16_69
*737 FILLER_16_74
*738 FILLER_16_78
*739 FILLER_16_82
*740 FILLER_16_90
*741 FILLER_17_102
*742 FILLER_17_109
*743 FILLER_17_129
*744 FILLER_17_147
*745 FILLER_17_156
*746 FILLER_17_166
*747 FILLER_17_169
*748 FILLER_17_186
*749 FILLER_17_24
*750 FILLER_17_28
*751 FILLER_17_45
*752 FILLER_17_53
*753 FILLER_17_57
*754 FILLER_17_6
*755 FILLER_17_65
*756 FILLER_17_84
*757 FILLER_18_104
*758 FILLER_18_111
*759 FILLER_18_118
*760 FILLER_18_130
*761 FILLER_18_138
*762 FILLER_18_141
*763 FILLER_18_149
*764 FILLER_18_156
*765 FILLER_18_170
*766 FILLER_18_188
*767 FILLER_18_22
*768 FILLER_18_29
*769 FILLER_18_3
*770 FILLER_18_38
*771 FILLER_18_45
*772 FILLER_18_54
*773 FILLER_18_59
*774 FILLER_18_67
*775 FILLER_18_73
*776 FILLER_18_81
*777 FILLER_18_95
*778 FILLER_19_100
*779 FILLER_19_109
*780 FILLER_19_122
*781 FILLER_19_13
*782 FILLER_19_135
*783 FILLER_19_143
*784 FILLER_19_154
*785 FILLER_19_166
*786 FILLER_19_178
*787 FILLER_19_188
*788 FILLER_19_19
*789 FILLER_19_24
*790 FILLER_19_3
*791 FILLER_19_32
*792 FILLER_19_38
*793 FILLER_19_45
*794 FILLER_19_54
*795 FILLER_19_60
*796 FILLER_19_78
*797 FILLER_19_9
*798 FILLER_19_90
*799 FILLER_19_96
*800 FILLER_1_102
*801 FILLER_1_110
*802 FILLER_1_113
*803 FILLER_1_13
*804 FILLER_1_130
*805 FILLER_1_142
*806 FILLER_1_146
*807 FILLER_1_164
*808 FILLER_1_185
*809 FILLER_1_189
*810 FILLER_1_20
*811 FILLER_1_25
*812 FILLER_1_29
*813 FILLER_1_47
*814 FILLER_1_54
*815 FILLER_1_73
*816 FILLER_1_78
*817 FILLER_1_97
*818 FILLER_20_111
*819 FILLER_20_129
*820 FILLER_20_135
*821 FILLER_20_139
*822 FILLER_20_141
*823 FILLER_20_147
*824 FILLER_20_158
*825 FILLER_20_170
*826 FILLER_20_188
*827 FILLER_20_26
*828 FILLER_20_3
*829 FILLER_20_32
*830 FILLER_20_37
*831 FILLER_20_42
*832 FILLER_20_48
*833 FILLER_20_55
*834 FILLER_20_61
*835 FILLER_20_67
*836 FILLER_20_80
*837 FILLER_20_88
*838 FILLER_20_9
*839 FILLER_20_94
*840 FILLER_21_103
*841 FILLER_21_108
*842 FILLER_21_113
*843 FILLER_21_124
*844 FILLER_21_142
*845 FILLER_21_15
*846 FILLER_21_164
*847 FILLER_21_185
*848 FILLER_21_189
*849 FILLER_21_23
*850 FILLER_21_3
*851 FILLER_21_40
*852 FILLER_21_44
*853 FILLER_21_52
*854 FILLER_21_57
*855 FILLER_21_63
*856 FILLER_21_74
*857 FILLER_21_87
*858 FILLER_21_94
*859 FILLER_21_99
*860 FILLER_22_100
*861 FILLER_22_106
*862 FILLER_22_112
*863 FILLER_22_117
*864 FILLER_22_125
*865 FILLER_22_134
*866 FILLER_22_150
*867 FILLER_22_155
*868 FILLER_22_160
*869 FILLER_22_166
*870 FILLER_22_170
*871 FILLER_22_178
*872 FILLER_22_18
*873 FILLER_22_183
*874 FILLER_22_188
*875 FILLER_22_26
*876 FILLER_22_35
*877 FILLER_22_41
*878 FILLER_22_50
*879 FILLER_22_59
*880 FILLER_22_6
*881 FILLER_22_65
*882 FILLER_22_74
*883 FILLER_22_81
*884 FILLER_22_93
*885 FILLER_23_100
*886 FILLER_23_107
*887 FILLER_23_111
*888 FILLER_23_120
*889 FILLER_23_127
*890 FILLER_23_147
*891 FILLER_23_156
*892 FILLER_23_162
*893 FILLER_23_174
*894 FILLER_23_179
*895 FILLER_23_188
*896 FILLER_23_24
*897 FILLER_23_35
*898 FILLER_23_43
*899 FILLER_23_51
*900 FILLER_23_55
*901 FILLER_23_57
*902 FILLER_23_6
*903 FILLER_23_64
*904 FILLER_23_69
*905 FILLER_23_75
*906 FILLER_23_79
*907 FILLER_23_88
*908 FILLER_24_102
*909 FILLER_24_111
*910 FILLER_24_123
*911 FILLER_24_132
*912 FILLER_24_137
*913 FILLER_24_151
*914 FILLER_24_159
*915 FILLER_24_168
*916 FILLER_24_188
*917 FILLER_24_20
*918 FILLER_24_26
*919 FILLER_24_3
*920 FILLER_24_39
*921 FILLER_24_61
*922 FILLER_24_69
*923 FILLER_24_79
*924 FILLER_24_83
*925 FILLER_24_95
*926 FILLER_25_10
*927 FILLER_25_101
*928 FILLER_25_110
*929 FILLER_25_123
*930 FILLER_25_132
*931 FILLER_25_139
*932 FILLER_25_14
*933 FILLER_25_150
*934 FILLER_25_161
*935 FILLER_25_166
*936 FILLER_25_174
*937 FILLER_25_179
*938 FILLER_25_184
*939 FILLER_25_22
*940 FILLER_25_31
*941 FILLER_25_43
*942 FILLER_25_52
*943 FILLER_25_6
*944 FILLER_25_64
*945 FILLER_25_69
*946 FILLER_25_88
*947 FILLER_25_93
*948 FILLER_26_103
*949 FILLER_26_107
*950 FILLER_26_115
*951 FILLER_26_120
*952 FILLER_26_138
*953 FILLER_26_141
*954 FILLER_26_15
*955 FILLER_26_159
*956 FILLER_26_166
*957 FILLER_26_184
*958 FILLER_26_19
*959 FILLER_26_26
*960 FILLER_26_3
*961 FILLER_26_45
*962 FILLER_26_50
*963 FILLER_26_69
*964 FILLER_26_77
*965 FILLER_26_82
*966 FILLER_26_85
*967 FILLER_26_9
*968 FILLER_27_103
*969 FILLER_27_108
*970 FILLER_27_113
*971 FILLER_27_124
*972 FILLER_27_129
*973 FILLER_27_13
*974 FILLER_27_134
*975 FILLER_27_141
*976 FILLER_27_147
*977 FILLER_27_152
*978 FILLER_27_156
*979 FILLER_27_161
*980 FILLER_27_166
*981 FILLER_27_172
*982 FILLER_27_18
*983 FILLER_27_182
*984 FILLER_27_188
*985 FILLER_27_23
*986 FILLER_27_27
*987 FILLER_27_31
*988 FILLER_27_43
*989 FILLER_27_55
*990 FILLER_27_63
*991 FILLER_27_69
*992 FILLER_27_77
*993 FILLER_27_81
*994 FILLER_27_85
*995 FILLER_27_97
*996 FILLER_2_116
*997 FILLER_2_123
*998 FILLER_2_127
*999 FILLER_2_131
*1000 FILLER_2_138
*1001 FILLER_2_150
*1002 FILLER_2_155
*1003 FILLER_2_162
*1004 FILLER_2_169
*1005 FILLER_2_176
*1006 FILLER_2_180
*1007 FILLER_2_186
*1008 FILLER_2_26
*1009 FILLER_2_29
*1010 FILLER_2_3
*1011 FILLER_2_39
*1012 FILLER_2_50
*1013 FILLER_2_56
*1014 FILLER_2_60
*1015 FILLER_2_66
*1016 FILLER_2_70
*1017 FILLER_2_8
*1018 FILLER_2_82
*1019 FILLER_2_93
*1020 FILLER_2_98
*1021 FILLER_3_104
*1022 FILLER_3_110
*1023 FILLER_3_119
*1024 FILLER_3_124
*1025 FILLER_3_129
*1026 FILLER_3_134
*1027 FILLER_3_14
*1028 FILLER_3_141
*1029 FILLER_3_146
*1030 FILLER_3_151
*1031 FILLER_3_158
*1032 FILLER_3_166
*1033 FILLER_3_172
*1034 FILLER_3_18
*1035 FILLER_3_182
*1036 FILLER_3_188
*1037 FILLER_3_29
*1038 FILLER_3_3
*1039 FILLER_3_36
*1040 FILLER_3_54
*1041 FILLER_3_57
*1042 FILLER_3_7
*1043 FILLER_3_70
*1044 FILLER_3_88
*1045 FILLER_3_96
*1046 FILLER_4_109
*1047 FILLER_4_115
*1048 FILLER_4_125
*1049 FILLER_4_138
*1050 FILLER_4_141
*1051 FILLER_4_158
*1052 FILLER_4_162
*1053 FILLER_4_169
*1054 FILLER_4_188
*1055 FILLER_4_22
*1056 FILLER_4_26
*1057 FILLER_4_29
*1058 FILLER_4_3
*1059 FILLER_4_33
*1060 FILLER_4_39
*1061 FILLER_4_46
*1062 FILLER_4_51
*1063 FILLER_4_55
*1064 FILLER_4_59
*1065 FILLER_4_81
*1066 FILLER_4_85
*1067 FILLER_4_93
*1068 FILLER_5_109
*1069 FILLER_5_118
*1070 FILLER_5_12
*1071 FILLER_5_136
*1072 FILLER_5_142
*1073 FILLER_5_153
*1074 FILLER_5_163
*1075 FILLER_5_167
*1076 FILLER_5_185
*1077 FILLER_5_189
*1078 FILLER_5_23
*1079 FILLER_5_43
*1080 FILLER_5_47
*1081 FILLER_5_5
*1082 FILLER_5_54
*1083 FILLER_5_66
*1084 FILLER_5_71
*1085 FILLER_5_95
*1086 FILLER_6_101
*1087 FILLER_6_110
*1088 FILLER_6_119
*1089 FILLER_6_126
*1090 FILLER_6_130
*1091 FILLER_6_138
*1092 FILLER_6_145
*1093 FILLER_6_164
*1094 FILLER_6_175
*1095 FILLER_6_188
*1096 FILLER_6_20
*1097 FILLER_6_29
*1098 FILLER_6_3
*1099 FILLER_6_39
*1100 FILLER_6_61
*1101 FILLER_6_79
*1102 FILLER_6_83
*1103 FILLER_6_85
*1104 FILLER_6_92
*1105 FILLER_7_103
*1106 FILLER_7_110
*1107 FILLER_7_120
*1108 FILLER_7_126
*1109 FILLER_7_13
*1110 FILLER_7_135
*1111 FILLER_7_144
*1112 FILLER_7_153
*1113 FILLER_7_159
*1114 FILLER_7_166
*1115 FILLER_7_169
*1116 FILLER_7_187
*1117 FILLER_7_24
*1118 FILLER_7_31
*1119 FILLER_7_42
*1120 FILLER_7_48
*1121 FILLER_7_53
*1122 FILLER_7_57
*1123 FILLER_7_64
*1124 FILLER_7_71
*1125 FILLER_7_83
*1126 FILLER_7_94
*1127 FILLER_8_102
*1128 FILLER_8_108
*1129 FILLER_8_119
*1130 FILLER_8_125
*1131 FILLER_8_137
*1132 FILLER_8_14
*1133 FILLER_8_148
*1134 FILLER_8_157
*1135 FILLER_8_163
*1136 FILLER_8_174
*1137 FILLER_8_185
*1138 FILLER_8_189
*1139 FILLER_8_19
*1140 FILLER_8_26
*1141 FILLER_8_29
*1142 FILLER_8_42
*1143 FILLER_8_6
*1144 FILLER_8_60
*1145 FILLER_8_79
*1146 FILLER_8_83
*1147 FILLER_8_93
*1148 FILLER_9_101
*1149 FILLER_9_109
*1150 FILLER_9_123
*1151 FILLER_9_129
*1152 FILLER_9_140
*1153 FILLER_9_150
*1154 FILLER_9_159
*1155 FILLER_9_166
*1156 FILLER_9_169
*1157 FILLER_9_188
*1158 FILLER_9_22
*1159 FILLER_9_26
*1160 FILLER_9_3
*1161 FILLER_9_37
*1162 FILLER_9_44
*1163 FILLER_9_49
*1164 FILLER_9_55
*1165 FILLER_9_57
*1166 FILLER_9_64
*1167 FILLER_9_71
*1168 FILLER_9_78
*1169 FILLER_9_90
*1170 FILLER_9_95
*1171 PHY_0
*1172 PHY_1
*1173 PHY_10
*1174 PHY_11
*1175 PHY_12
*1176 PHY_13
*1177 PHY_14
*1178 PHY_15
*1179 PHY_16
*1180 PHY_17
*1181 PHY_18
*1182 PHY_19
*1183 PHY_2
*1184 PHY_20
*1185 PHY_21
*1186 PHY_22
*1187 PHY_23
*1188 PHY_24
*1189 PHY_25
*1190 PHY_26
*1191 PHY_27
*1192 PHY_28
*1193 PHY_29
*1194 PHY_3
*1195 PHY_30
*1196 PHY_31
*1197 PHY_32
*1198 PHY_33
*1199 PHY_34
*1200 PHY_35
*1201 PHY_36
*1202 PHY_37
*1203 PHY_38
*1204 PHY_39
*1205 PHY_4
*1206 PHY_40
*1207 PHY_41
*1208 PHY_42
*1209 PHY_43
*1210 PHY_44
*1211 PHY_45
*1212 PHY_46
*1213 PHY_47
*1214 PHY_48
*1215 PHY_49
*1216 PHY_5
*1217 PHY_50
*1218 PHY_51
*1219 PHY_52
*1220 PHY_53
*1221 PHY_54
*1222 PHY_55
*1223 PHY_6
*1224 PHY_7
*1225 PHY_8
*1226 PHY_9
*1227 TAP_100
*1228 TAP_101
*1229 TAP_102
*1230 TAP_103
*1231 TAP_104
*1232 TAP_105
*1233 TAP_106
*1234 TAP_107
*1235 TAP_108
*1236 TAP_109
*1237 TAP_110
*1238 TAP_111
*1239 TAP_112
*1240 TAP_113
*1241 TAP_114
*1242 TAP_115
*1243 TAP_116
*1244 TAP_117
*1245 TAP_118
*1246 TAP_119
*1247 TAP_120
*1248 TAP_121
*1249 TAP_122
*1250 TAP_123
*1251 TAP_124
*1252 TAP_125
*1253 TAP_126
*1254 TAP_127
*1255 TAP_128
*1256 TAP_129
*1257 TAP_130
*1258 TAP_131
*1259 TAP_132
*1260 TAP_133
*1261 TAP_134
*1262 TAP_135
*1263 TAP_136
*1264 TAP_137
*1265 TAP_138
*1266 TAP_139
*1267 TAP_140
*1268 TAP_141
*1269 TAP_142
*1270 TAP_143
*1271 TAP_144
*1272 TAP_145
*1273 TAP_56
*1274 TAP_57
*1275 TAP_58
*1276 TAP_59
*1277 TAP_60
*1278 TAP_61
*1279 TAP_62
*1280 TAP_63
*1281 TAP_64
*1282 TAP_65
*1283 TAP_66
*1284 TAP_67
*1285 TAP_68
*1286 TAP_69
*1287 TAP_70
*1288 TAP_71
*1289 TAP_72
*1290 TAP_73
*1291 TAP_74
*1292 TAP_75
*1293 TAP_76
*1294 TAP_77
*1295 TAP_78
*1296 TAP_79
*1297 TAP_80
*1298 TAP_81
*1299 TAP_82
*1300 TAP_83
*1301 TAP_84
*1302 TAP_85
*1303 TAP_86
*1304 TAP_87
*1305 TAP_88
*1306 TAP_89
*1307 TAP_90
*1308 TAP_91
*1309 TAP_92
*1310 TAP_93
*1311 TAP_94
*1312 TAP_95
*1313 TAP_96
*1314 TAP_97
*1315 TAP_98
*1316 TAP_99
*1317 _315_
*1318 _316_
*1319 _317_
*1320 _318_
*1321 _319_
*1322 _320_
*1323 _321_
*1324 _322_
*1325 _323_
*1326 _324_
*1327 _325_
*1328 _326_
*1329 _327_
*1330 _328_
*1331 _329_
*1332 _330_
*1333 _331_
*1334 _332_
*1335 _333_
*1336 _334_
*1337 _335_
*1338 _336_
*1339 _337_
*1340 _338_
*1341 _339_
*1342 _340_
*1343 _341_
*1344 _342_
*1345 _343_
*1346 _344_
*1347 _345_
*1348 _346_
*1349 _347_
*1350 _348_
*1351 _349_
*1352 _350_
*1353 _351_
*1354 _352_
*1355 _353_
*1356 _354_
*1357 _355_
*1358 _356_
*1359 _357_
*1360 _358_
*1361 _359_
*1362 _360_
*1363 _361_
*1364 _362_
*1365 _363_
*1366 _364_
*1367 _365_
*1368 _366_
*1369 _367_
*1370 _368_
*1371 _369_
*1372 _370_
*1373 _371_
*1374 _372_
*1375 _373_
*1376 _374_
*1377 _375_
*1378 _376_
*1379 _377_
*1380 _378_
*1381 _379_
*1382 _380_
*1383 _381_
*1384 _382_
*1385 _383_
*1386 _384_
*1387 _385_
*1388 _386_
*1389 _387_
*1390 _388_
*1391 _389_
*1392 _390_
*1393 _391_
*1394 _392_
*1395 _393_
*1396 _394_
*1397 _395_
*1398 _396_
*1399 _397_
*1400 _398_
*1401 _399_
*1402 _400_
*1403 _401_
*1404 _402_
*1405 _403_
*1406 _404_
*1407 _405_
*1408 _406_
*1409 _407_
*1410 _408_
*1411 _409_
*1412 _410_
*1413 _411_
*1414 _412_
*1415 _413_
*1416 _414_
*1417 _415_
*1418 _416_
*1419 _417_
*1420 _418_
*1421 _419_
*1422 _420_
*1423 _421_
*1424 _422_
*1425 _423_
*1426 _424_
*1427 _425_
*1428 _426_
*1429 _427_
*1430 _428_
*1431 _429_
*1432 _430_
*1433 _431_
*1434 _432_
*1435 _433_
*1436 _434_
*1437 _435_
*1438 _436_
*1439 _437_
*1440 _438_
*1441 _439_
*1442 _440_
*1443 _441_
*1444 _442_
*1445 _443_
*1446 _444_
*1447 _445_
*1448 _446_
*1449 _447_
*1450 _448_
*1451 _449_
*1452 _450_
*1453 _451_
*1454 _452_
*1455 _453_
*1456 _454_
*1457 _455_
*1458 _456_
*1459 _457_
*1460 _458_
*1461 _459_
*1462 _460_
*1463 _461_
*1464 _462_
*1465 _463_
*1466 _464_
*1467 _465_
*1468 _466_
*1469 _467_
*1470 _468_
*1471 _469_
*1472 _470_
*1473 _471_
*1474 _472_
*1475 _473_
*1476 _474_
*1477 _475_
*1478 _476_
*1479 _477_
*1480 _478_
*1481 _479_
*1482 _480_
*1483 _481_
*1484 _482_
*1485 _483_
*1486 _484_
*1487 _485_
*1488 _486_
*1489 _487_
*1490 _488_
*1491 _489_
*1492 _490_
*1493 _491_
*1494 _492_
*1495 _493_
*1496 _494_
*1497 _495_
*1498 _496_
*1499 _497_
*1500 _498_
*1501 _499_
*1502 _500_
*1503 _501_
*1504 _502_
*1505 _503_
*1506 _504_
*1507 _505_
*1508 _506_
*1509 _507_
*1510 _508_
*1511 _509_
*1512 _510_
*1513 _511_
*1514 _512_
*1515 _513_
*1516 _514_
*1517 _515_
*1518 _516_
*1519 _517_
*1520 _518_
*1521 _519_
*1522 _520_
*1523 _521_
*1524 _522_
*1525 _523_
*1526 _524_
*1527 _525_
*1528 _526_
*1529 _527_
*1530 _528_
*1531 _529_
*1532 _530_
*1533 _531_
*1534 _532_
*1535 _533_
*1536 _534_
*1537 _535_
*1538 _536_
*1539 _537_
*1540 _538_
*1541 _539_
*1542 _540_
*1543 _541_
*1544 _542_
*1545 _543_
*1546 _544_
*1547 _545_
*1548 _546_
*1549 _547_
*1550 _548_
*1551 _549_
*1552 _550_
*1553 _551_
*1554 _552_
*1555 _553_
*1556 _554_
*1557 _555_
*1558 _556_
*1559 _557_
*1560 _558_
*1561 _559_
*1562 _560_
*1563 _561_
*1564 _562_
*1565 _563_
*1566 _564_
*1567 _565_
*1568 _566_
*1569 _567_
*1570 _568_
*1571 _569_
*1572 _570_
*1573 _571_
*1574 _572_
*1575 _573_
*1576 _574_
*1577 _575_
*1578 _576_
*1579 _577_
*1580 _578_
*1581 _579_
*1582 _580_
*1583 _581_
*1584 _582_
*1585 _583_
*1586 _584_
*1587 _585_
*1588 _586_
*1589 _587_
*1590 _588_
*1591 _589_
*1592 _590_
*1593 _591_
*1594 _592_
*1595 _593_
*1596 _594_
*1597 _595_
*1598 _596_
*1599 _597_
*1600 _598_
*1601 _599_
*1602 _600_
*1603 _601_
*1604 _602_
*1605 _603_
*1606 _604_
*1607 _605_
*1608 _606_
*1609 _607_
*1610 _608_
*1611 _609_
*1612 _610_
*1613 _611_
*1614 _612_
*1615 _613_
*1616 _614_
*1617 _615_
*1618 _616_
*1619 _617_
*1620 _618_
*1621 _619_
*1622 _620_
*1623 _621_
*1624 _622_
*1625 _623_
*1626 _624_
*1627 _625_
*1628 _626_
*1629 _627_
*1630 _628_
*1631 _629_
*1632 _630_
*1633 _631_
*1634 _632_
*1635 _633_
*1636 _634_
*1637 _635_
*1638 _636_
*1639 _637_
*1640 _638_
*1641 _639_
*1642 _640_
*1643 _641_
*1644 _642_
*1645 _643_
*1646 _644_
*1647 _645_
*1648 _646_
*1649 _647_
*1650 _648_
*1651 _649_
*1652 _650_
*1653 _651_
*1654 _652_
*1655 _653_
*1656 _654_
*1657 _655_
*1658 _656_
*1659 _657_
*1660 _658_
*1661 _659_
*1662 _660_
*1663 _661_
*1664 _662_
*1665 _663_
*1666 _664_
*1667 _665_
*1668 _666_
*1669 _667_
*1670 _668_
*1671 _669_
*1672 _670_
*1673 _671_
*1674 _672_
*1675 _673_
*1676 _674_
*1677 _675_
*1678 _676_
*1679 _677_
*1680 _678_
*1681 _679_
*1682 _680_
*1683 _681_
*1684 _682_
*1685 _683_
*1686 _684_
*1687 _685_
*1688 _686_
*1689 _687_
*1690 _688_
*1691 _689_
*1692 _690_
*1693 _691_
*1694 _692_
*1695 _693_
*1696 _694_
*1697 _695_
*1698 _696_
*1699 _697_
*1700 _698_
*1701 _699_
*1702 _700_
*1703 _701_
*1704 _702_
*1705 _703_
*1706 _704_
*1707 _705_
*1708 _706_
*1709 _707_
*1710 _708__35
*1711 _709__36
*1712 _710__37
*1713 _711__38
*1714 _712__39
*1715 _713__40
*1716 _714__41
*1717 _715__42
*1718 _716__43
*1719 _717__44
*1720 _718__45
*1721 _719__46
*1722 _720__47
*1723 _721__48
*1724 _722__49
*1725 _723__50
*1726 _724__51
*1727 _725__52
*1728 _726__53
*1729 _727__54
*1730 _728__55
*1731 _729__56
*1732 _730__57
*1733 _731__58
*1734 clkbuf_0_clock
*1735 clkbuf_1_0_0_clock
*1736 clkbuf_1_1_0_clock
*1737 clkbuf_2_0_0_clock
*1738 clkbuf_2_1_0_clock
*1739 clkbuf_2_2_0_clock
*1740 clkbuf_2_3_0_clock
*1741 clkbuf_3_0_0_clock
*1742 clkbuf_3_1_0_clock
*1743 clkbuf_3_2_0_clock
*1744 clkbuf_3_3_0_clock
*1745 clkbuf_3_4_0_clock
*1746 clkbuf_3_5_0_clock
*1747 clkbuf_3_6_0_clock
*1748 clkbuf_3_7_0_clock
*1749 input1
*1750 input10
*1751 input11
*1752 input12
*1753 input13
*1754 input14
*1755 input15
*1756 input16
*1757 input17
*1758 input18
*1759 input19
*1760 input2
*1761 input20
*1762 input21
*1763 input3
*1764 input4
*1765 input5
*1766 input6
*1767 input7
*1768 input8
*1769 input9
*1770 output22
*1771 output23
*1772 output24
*1773 output25
*1774 output26
*1775 output27
*1776 output28
*1777 output29
*1778 output30
*1779 output31
*1780 output32
*1781 output33
*1782 output34

*PORTS
clock I
io_spi_clk O
io_spi_cs O
io_spi_intr O
io_spi_miso I
io_spi_mosi O
io_spi_select I
io_wbs_ack_o O
io_wbs_data_o[0] O
io_wbs_data_o[10] O
io_wbs_data_o[11] O
io_wbs_data_o[12] O
io_wbs_data_o[13] O
io_wbs_data_o[14] O
io_wbs_data_o[15] O
io_wbs_data_o[16] O
io_wbs_data_o[17] O
io_wbs_data_o[18] O
io_wbs_data_o[19] O
io_wbs_data_o[1] O
io_wbs_data_o[20] O
io_wbs_data_o[21] O
io_wbs_data_o[22] O
io_wbs_data_o[23] O
io_wbs_data_o[24] O
io_wbs_data_o[25] O
io_wbs_data_o[26] O
io_wbs_data_o[27] O
io_wbs_data_o[28] O
io_wbs_data_o[29] O
io_wbs_data_o[2] O
io_wbs_data_o[30] O
io_wbs_data_o[31] O
io_wbs_data_o[3] O
io_wbs_data_o[4] O
io_wbs_data_o[5] O
io_wbs_data_o[6] O
io_wbs_data_o[7] O
io_wbs_data_o[8] O
io_wbs_data_o[9] O
io_wbs_m2s_addr[0] I
io_wbs_m2s_addr[10] I
io_wbs_m2s_addr[11] I
io_wbs_m2s_addr[12] I
io_wbs_m2s_addr[13] I
io_wbs_m2s_addr[14] I
io_wbs_m2s_addr[15] I
io_wbs_m2s_addr[1] I
io_wbs_m2s_addr[2] I
io_wbs_m2s_addr[3] I
io_wbs_m2s_addr[4] I
io_wbs_m2s_addr[5] I
io_wbs_m2s_addr[6] I
io_wbs_m2s_addr[7] I
io_wbs_m2s_addr[8] I
io_wbs_m2s_addr[9] I
io_wbs_m2s_data[0] I
io_wbs_m2s_data[10] I
io_wbs_m2s_data[11] I
io_wbs_m2s_data[12] I
io_wbs_m2s_data[13] I
io_wbs_m2s_data[14] I
io_wbs_m2s_data[15] I
io_wbs_m2s_data[16] I
io_wbs_m2s_data[17] I
io_wbs_m2s_data[18] I
io_wbs_m2s_data[19] I
io_wbs_m2s_data[1] I
io_wbs_m2s_data[20] I
io_wbs_m2s_data[21] I
io_wbs_m2s_data[22] I
io_wbs_m2s_data[23] I
io_wbs_m2s_data[24] I
io_wbs_m2s_data[25] I
io_wbs_m2s_data[26] I
io_wbs_m2s_data[27] I
io_wbs_m2s_data[28] I
io_wbs_m2s_data[29] I
io_wbs_m2s_data[2] I
io_wbs_m2s_data[30] I
io_wbs_m2s_data[31] I
io_wbs_m2s_data[3] I
io_wbs_m2s_data[4] I
io_wbs_m2s_data[5] I
io_wbs_m2s_data[6] I
io_wbs_m2s_data[7] I
io_wbs_m2s_data[8] I
io_wbs_m2s_data[9] I
io_wbs_m2s_stb I
io_wbs_m2s_we I
reset I

*D_NET *1 0.0139551
*CONN
*P clock I
*I *529:DIODE I *D sky130_fd_sc_hd__diode_2
*I *1734:A I *D sky130_fd_sc_hd__clkbuf_16
*CAP
1 clock 0.000793118
2 *529:DIODE 0.000238358
3 *1734:A 0
4 *1:14 0.00150979
5 *1:13 0.00340108
6 *1:10 0.00292277
7 *529:DIODE *262:61 7.98416e-05
8 *529:DIODE *440:5 0.000118166
9 *529:DIODE *484:15 0.000143017
10 *1:10 io_wbs_data_o[19] 0
11 *1:10 io_wbs_data_o[29] 0.000178632
12 *1:10 *1496:A 0
13 *1:10 *1668:D 0
14 *1:10 *79:8 0.000202801
15 *1:10 *84:10 0
16 *1:13 io_wbs_data_o[12] 6.45664e-05
17 *1:13 io_wbs_data_o[19] 6.68703e-05
18 *1:13 *535:DIODE 2.72092e-05
19 *1:13 *1410:B1 4.30017e-06
20 *1:13 *1496:A 3.75224e-05
21 *1:13 *1668:D 6.36477e-05
22 *1:13 *1774:A 2.42138e-05
23 *1:13 *49:20 2.42273e-05
24 *1:13 *480:16 2.23499e-05
25 *1:13 *502:11 0.00141334
26 *1:14 *1410:B1 0.000170577
27 *1:14 *1467:B 9.25517e-05
28 *1:14 *1522:A1 0.000122098
29 *1:14 *1522:A2 4.70005e-05
30 *1:14 *1522:B1 0.000134421
31 *1:14 *1522:C1 4.89985e-05