*SPEF "ieee 1481-1999"
*DESIGN "UART"
*DATE "11:11:11 Fri 11 11, 1111"
*VENDOR "OpenRCX"
*PROGRAM "Parallel Extraction"
*VERSION "1.0"
*DESIGN_FLOW "NAME_SCOPE LOCAL" "PIN_CAP NONE"
*DIVIDER /
*DELIMITER :
*BUS_DELIMITER []
*T_UNIT 1 NS
*C_UNIT 1 PF
*R_UNIT 1 OHM
*L_UNIT 1 HENRY

*NAME_MAP
*1 clock
*2 io_rxd
*3 io_txd
*4 io_uartInt
*5 io_uart_select
*6 io_wbs_ack_o
*7 io_wbs_data_o[0]
*8 net35
*9 net36
*10 net37
*11 net38
*12 net39
*13 net40
*14 net41
*15 net42
*16 net43
*17 net44
*18 io_wbs_data_o[1]
*19 net45
*20 net46
*21 net47
*22 net48
*23 net49
*24 net50
*25 net51
*26 net52
*27 net53
*28 net54
*29 io_wbs_data_o[2]
*30 net55
*31 net56
*32 io_wbs_data_o[3]
*33 io_wbs_data_o[4]
*34 io_wbs_data_o[5]
*35 io_wbs_data_o[6]
*36 io_wbs_data_o[7]
*37 net33
*38 net34
*39 io_wbs_m2s_addr[0]
*40 io_wbs_m2s_addr[10]
*41 io_wbs_m2s_addr[11]
*42 io_wbs_m2s_addr[12]
*43 io_wbs_m2s_addr[13]
*44 io_wbs_m2s_addr[14]
*45 io_wbs_m2s_addr[15]
*46 io_wbs_m2s_addr[16]
*47 io_wbs_m2s_addr[17]
*48 io_wbs_m2s_addr[18]
*49 io_wbs_m2s_addr[19]
*50 io_wbs_m2s_addr[1]
*51 io_wbs_m2s_addr[20]
*52 io_wbs_m2s_addr[21]
*53 io_wbs_m2s_addr[22]
*54 io_wbs_m2s_addr[23]
*55 io_wbs_m2s_addr[24]
*56 io_wbs_m2s_addr[25]
*57 io_wbs_m2s_addr[26]
*58 io_wbs_m2s_addr[27]
*59 io_wbs_m2s_addr[28]
*60 io_wbs_m2s_addr[29]
*61 io_wbs_m2s_addr[2]
*62 io_wbs_m2s_addr[30]
*63 io_wbs_m2s_addr[31]
*64 io_wbs_m2s_addr[3]
*65 io_wbs_m2s_addr[4]
*66 io_wbs_m2s_addr[5]
*67 io_wbs_m2s_addr[6]
*68 io_wbs_m2s_addr[7]
*69 io_wbs_m2s_addr[8]
*70 io_wbs_m2s_addr[9]
*71 io_wbs_m2s_data[0]
*72 io_wbs_m2s_data[10]
*73 io_wbs_m2s_data[11]
*74 io_wbs_m2s_data[12]
*75 io_wbs_m2s_data[13]
*76 io_wbs_m2s_data[14]
*77 io_wbs_m2s_data[15]
*78 io_wbs_m2s_data[16]
*79 io_wbs_m2s_data[17]
*80 io_wbs_m2s_data[18]
*81 io_wbs_m2s_data[19]
*82 io_wbs_m2s_data[1]
*83 io_wbs_m2s_data[20]
*84 io_wbs_m2s_data[21]
*85 io_wbs_m2s_data[22]
*86 io_wbs_m2s_data[23]
*87 io_wbs_m2s_data[24]
*88 io_wbs_m2s_data[25]
*89 io_wbs_m2s_data[26]
*90 io_wbs_m2s_data[27]
*91 io_wbs_m2s_data[28]
*92 io_wbs_m2s_data[29]
*93 io_wbs_m2s_data[2]
*94 io_wbs_m2s_data[30]
*95 io_wbs_m2s_data[31]
*96 io_wbs_m2s_data[3]
*97 io_wbs_m2s_data[4]
*98 io_wbs_m2s_data[5]
*99 io_wbs_m2s_data[6]
*100 io_wbs_m2s_data[7]
*101 io_wbs_m2s_data[8]
*102 io_wbs_m2s_data[9]
*103 io_wbs_m2s_stb
*104 io_wbs_m2s_we
*105 reset
*108 _0000_
*109 _0001_
*110 _0002_
*111 _0003_
*112 _0004_
*113 _0005_
*114 _0006_
*115 _0007_
*116 _0008_
*117 _0009_
*118 _0010_
*119 _0011_
*120 _0012_
*121 _0013_
*122 _0014_
*123 _0015_
*124 _0016_
*125 _0017_
*126 _0018_
*127 _0019_
*128 _0020_
*129 _0021_
*130 _0022_
*131 _0023_
*132 _0024_
*133 _0025_
*134 _0026_
*135 _0027_
*136 _0028_
*137 _0029_
*138 _0030_
*139 _0031_
*140 _0032_
*141 _0033_
*142 _0034_
*143 _0035_
*144 _0036_
*145 _0037_
*146 _0038_
*147 _0039_
*148 _0040_
*149 _0041_
*150 _0042_
*151 _0043_
*152 _0044_
*153 _0045_
*154 _0046_
*155 _0047_
*156 _0048_
*157 _0049_
*158 _0050_
*159 _0051_
*160 _0052_
*161 _0053_
*162 _0054_
*163 _0055_
*164 _0056_
*165 _0057_
*166 _0058_
*167 _0059_
*168 _0060_
*169 _0061_
*170 _0062_
*171 _0063_
*172 _0064_
*173 _0065_
*174 _0066_
*175 _0067_
*176 _0068_
*177 _0069_
*178 _0070_
*179 _0071_
*180 _0072_
*181 _0073_
*182 _0074_
*183 _0075_
*184 _0076_
*185 _0077_
*186 _0078_
*187 _0079_
*188 _0080_
*189 _0081_
*190 _0082_
*191 _0083_
*192 _0084_
*193 _0085_
*194 _0086_
*195 _0087_
*196 _0088_
*197 _0089_
*198 _0090_
*199 _0091_
*200 _0092_
*201 _0093_
*202 _0094_
*203 _0095_
*204 _0096_
*205 _0097_
*206 _0098_
*207 _0099_
*208 _0100_
*209 _0101_
*210 _0102_
*211 _0103_
*212 _0104_
*213 _0105_
*214 _0106_
*215 _0107_
*216 _0108_
*217 _0109_
*218 _0110_
*219 _0111_
*220 _0112_
*221 _0113_
*222 _0114_
*223 _0115_
*224 _0116_
*225 _0117_
*226 _0118_
*227 _0119_
*228 _0120_
*229 _0121_
*230 _0122_
*231 _0123_
*232 _0124_
*233 _0125_
*234 _0126_
*235 _0127_
*236 _0128_
*237 _0129_
*238 _0130_
*239 _0131_
*240 _0132_
*241 _0133_
*242 _0134_
*243 _0135_
*244 _0136_
*245 _0137_
*246 _0138_
*247 _0139_
*248 _0140_
*249 _0141_
*250 _0142_
*251 _0143_
*252 _0144_
*253 _0145_
*254 _0146_
*255 _0147_
*256 _0148_
*257 _0149_
*258 _0150_
*259 _0151_
*260 _0152_
*261 _0153_
*262 _0154_
*263 _0155_
*264 _0156_
*265 _0157_
*266 _0158_
*267 _0159_
*268 _0160_
*269 _0161_
*270 _0162_
*271 _0163_
*272 _0164_
*273 _0165_
*274 _0166_
*275 _0167_
*276 _0168_
*277 _0169_
*278 _0170_
*279 _0171_
*280 _0172_
*281 _0173_
*282 _0174_
*283 _0175_
*284 _0176_
*285 _0177_
*286 _0178_
*287 _0179_
*288 _0180_
*289 _0181_
*290 _0182_
*291 _0183_
*292 _0184_
*293 _0185_
*294 _0186_
*295 _0187_
*296 _0188_
*297 _0189_
*298 _0190_
*299 _0191_
*300 _0192_
*301 _0193_
*302 _0194_
*303 _0195_
*304 _0196_
*305 _0197_
*306 _0198_
*307 _0199_
*308 _0200_
*309 _0201_
*310 _0202_
*311 _0203_
*312 _0204_
*313 _0205_
*314 _0206_
*315 _0207_
*316 _0208_
*317 _0209_
*318 _0210_
*319 _0211_
*320 _0212_
*321 _0213_
*322 _0214_
*323 _0215_
*324 _0216_
*325 _0217_
*326 _0218_
*327 _0219_
*328 _0220_
*329 _0221_
*330 _0222_
*331 _0223_
*332 _0224_
*333 _0225_
*334 _0226_
*335 _0227_
*336 _0228_
*337 _0229_
*338 _0230_
*339 _0231_
*340 _0232_
*341 _0233_
*342 _0234_
*343 _0235_
*344 _0236_
*345 _0237_
*346 _0238_
*347 _0239_
*348 _0240_
*349 _0241_
*350 _0242_
*351 _0243_
*352 _0244_
*353 _0245_
*354 _0246_
*355 _0247_
*356 _0248_
*357 _0249_
*358 _0250_
*359 _0251_
*360 _0252_
*361 _0253_
*362 _0254_
*363 _0255_
*364 _0256_
*365 _0257_
*366 _0258_
*367 _0259_
*368 _0260_
*369 _0261_
*370 _0262_
*371 _0263_
*372 _0264_
*373 _0265_
*374 _0266_
*375 _0267_
*376 _0268_
*377 _0269_
*378 _0270_
*379 _0271_
*380 _0272_
*381 _0273_
*382 _0274_
*383 _0275_
*384 _0276_
*385 _0277_
*386 _0278_
*387 _0279_
*388 _0280_
*389 _0281_
*390 _0282_
*391 _0283_
*392 _0284_
*393 _0285_
*394 _0286_
*395 _0287_
*396 _0288_
*397 _0289_
*398 _0290_
*399 _0291_
*400 _0292_
*401 _0293_
*402 _0294_
*403 _0295_
*404 _0296_
*405 _0297_
*406 _0298_
*407 _0299_
*408 _0300_
*409 _0301_
*410 _0302_
*411 _0303_
*412 _0304_
*413 _0305_
*414 _0306_
*415 _0307_
*416 _0308_
*417 _0309_
*418 _0310_
*419 _0311_
*420 _0312_
*421 _0313_
*422 _0314_
*423 _0315_
*424 _0316_
*425 _0317_
*426 _0318_
*427 _0319_
*428 _0320_
*429 _0321_
*430 _0322_
*431 _0323_
*432 _0324_
*433 _0325_
*434 _0326_
*435 _0327_
*436 _0328_
*437 _0329_
*438 _0330_
*439 _0331_
*440 _0332_
*441 _0333_
*442 _0334_
*443 _0335_
*444 _0336_
*445 _0337_
*446 _0338_
*447 _0339_
*448 _0340_
*449 _0341_
*450 _0342_
*451 _0343_
*452 _0344_
*453 _0345_
*454 _0346_
*455 _0347_
*456 _0348_
*457 _0349_
*458 _0350_
*459 _0351_
*460 _0352_
*461 _0353_
*462 _0354_
*463 _0355_
*464 _0356_
*465 _0357_
*466 _0358_
*467 _0359_
*468 _0360_
*469 _0361_
*470 _0362_
*471 _0363_
*472 _0364_
*473 _0365_
*474 _0366_
*475 _0367_
*476 _0368_
*477 _0369_
*478 _0370_
*479 _0371_
*480 _0372_
*481 _0373_
*482 _0374_
*483 _0375_
*484 _0376_
*485 _0377_
*486 _0378_
*487 _0379_
*488 _0380_
*489 _0381_
*490 _0382_
*491 _0383_
*492 _0384_
*493 _0385_
*494 _0386_
*495 _0387_
*496 _0388_
*497 _0389_
*498 _0390_
*499 _0391_
*500 _0392_
*501 _0393_
*502 _0394_
*503 _0395_
*504 _0396_
*505 _0397_
*506 _0398_
*507 _0399_
*508 _0400_
*509 _0401_
*510 _0402_
*511 _0403_
*512 _0404_
*513 _0405_
*514 _0406_
*515 _0407_
*516 _0408_
*517 _0409_
*518 _0410_
*519 _0411_
*520 _0412_
*521 _0413_
*522 _0414_
*523 _0415_
*524 _0416_
*525 _0417_
*526 _0418_
*527 _0419_
*528 _0420_
*529 _0421_
*530 _0422_
*531 _0423_
*532 _0424_
*533 _0425_
*534 _0426_
*535 _0427_
*536 _0428_
*537 _0429_
*538 _0430_
*539 _0431_
*540 _0432_
*541 _0433_
*542 _0434_
*543 _0435_
*544 _0436_
*545 _0437_
*546 _0438_
*547 _0439_
*548 _0440_
*549 _0441_
*550 _0442_
*551 _0443_
*552 _0444_
*553 _0445_
*554 _0446_
*555 _0447_
*556 _0448_
*557 _0449_
*558 _0450_
*559 _0451_
*560 _0452_
*561 _0453_
*562 _0454_
*563 _0455_
*564 _0456_
*565 _0457_
*566 _0458_
*567 _0459_
*568 _0460_
*569 _0461_
*570 _0462_
*571 _0463_
*572 _0464_
*573 _0465_
*574 _0466_
*575 _0467_
*576 _0468_
*577 _0469_
*578 _0470_
*579 _0471_
*580 _0472_
*581 _0473_
*582 _0474_
*583 _0475_
*584 _0476_
*585 _0477_
*586 _0478_
*587 _0479_
*588 _0480_
*589 _0481_
*590 _0482_
*591 _0483_
*592 _0484_
*593 _0485_
*594 _0486_
*595 _0487_
*596 _0488_
*597 _0489_
*598 _0490_
*599 _0491_
*600 _0492_
*601 _0493_
*602 _0494_
*603 _0495_
*604 _0496_
*605 _0497_
*606 _0498_
*607 _0499_
*608 _0500_
*609 _0501_
*610 _0502_
*611 _0503_
*612 _0504_
*613 _0505_
*614 _0506_
*615 _0507_
*616 _0508_
*617 _0509_
*618 _0510_
*619 _0511_
*620 _0512_
*621 _0513_
*622 _0514_
*623 _0515_
*624 _0516_
*625 _0517_
*626 _0518_
*627 _0519_
*628 _0520_
*629 _0521_
*630 _0522_
*631 _0523_
*632 _T_100
*633 _T_102\[2\]
*634 _T_102\[3\]
*635 _T_102\[4\]
*636 _T_102\[5\]
*637 _T_102\[6\]
*638 _T_102\[7\]
*639 _T_94\[0\]
*640 clknet_0_clock
*641 clknet_3_0_0_clock
*642 clknet_3_1_0_clock
*643 clknet_3_2_0_clock
*644 clknet_3_3_0_clock
*645 clknet_3_4_0_clock
*646 clknet_3_5_0_clock
*647 clknet_3_6_0_clock
*648 clknet_3_7_0_clock
*649 clknet_4_0_0_clock
*650 clknet_4_10_0_clock
*651 clknet_4_11_0_clock
*652 clknet_4_12_0_clock
*653 clknet_4_13_0_clock
*654 clknet_4_14_0_clock
*655 clknet_4_15_0_clock
*656 clknet_4_1_0_clock
*657 clknet_4_2_0_clock
*658 clknet_4_3_0_clock
*659 clknet_4_4_0_clock
*660 clknet_4_5_0_clock
*661 clknet_4_6_0_clock
*662 clknet_4_7_0_clock
*663 clknet_4_8_0_clock
*664 clknet_4_9_0_clock
*665 control_r\[0\]
*666 control_r\[1\]
*667 control_r\[2\]
*668 control_r\[3\]
*669 control_r\[4\]
*670 control_r\[5\]
*671 control_r\[6\]
*672 int_mask_r\[0\]
*673 int_mask_r\[1\]
*674 int_mask_r\[2\]
*675 int_mask_r\[3\]
*676 int_mask_r\[4\]
*677 int_mask_r\[5\]
*678 int_mask_r\[6\]
*679 int_mask_r\[7\]
*680 net1
*681 net10
*682 net11
*683 net12
*684 net13
*685 net14
*686 net15
*687 net16
*688 net17
*689 net18
*690 net19
*691 net2
*692 net20
*693 net21
*694 net22
*695 net23
*696 net24
*697 net25
*698 net26
*699 net27
*700 net28
*701 net29
*702 net3
*703 net30
*704 net31
*705 net32
*706 net4
*707 net5
*708 net6
*709 net7
*710 net8
*711 net9
*712 rx_data_r\[0\]
*713 rx_data_r\[1\]
*714 rx_data_r\[2\]
*715 rx_data_r\[3\]
*716 rx_data_r\[4\]
*717 rx_data_r\[5\]
*718 rx_data_r\[6\]
*719 rxm\._GEN_28\[0\]
*720 rxm\._GEN_28\[1\]
*721 rxm\._GEN_28\[2\]
*722 rxm\._GEN_28\[3\]
*723 rxm\._GEN_28\[4\]
*724 rxm\._GEN_28\[5\]
*725 rxm\._GEN_28\[6\]
*726 rxm\._GEN_28\[7\]
*727 rxm\._GEN_28\[8\]
*728 rxm\._T_29\[0\]
*729 rxm\._T_29\[1\]
*730 rxm\._T_29\[2\]
*731 rxm\._T_29\[3\]
*732 rxm\._T_29\[4\]
*733 rxm\._T_29\[5\]
*734 rxm\._T_29\[6\]
*735 rxm\._T_49\[0\]
*736 rxm\._T_49\[1\]
*737 rxm\._T_49\[2\]
*738 rxm\._T_49\[3\]
*739 rxm\._T_49\[4\]
*740 rxm\._T_49\[5\]
*741 rxm\._T_49\[6\]
*742 rxm\.data_count\[0\]
*743 rxm\.data_count\[1\]
*744 rxm\.data_count\[2\]
*745 rxm\.data_count\[3\]
*746 rxm\.io_div\[0\]
*747 rxm\.io_out_bits\[0\]
*748 rxm\.io_out_valid
*749 rxm\.prescaler\[0\]
*750 rxm\.prescaler\[1\]
*751 rxm\.prescaler\[2\]
*752 rxm\.prescaler\[3\]
*753 rxm\.prescaler\[4\]
*754 rxm\.prescaler\[5\]
*755 rxm\.prescaler\[6\]
*756 rxm\.prescaler\[7\]
*757 rxm\.prescaler\[8\]
*758 rxm\.prescaler\[9\]
*759 rxm\.state
*760 txm\._T_37\[1\]
*761 txm\._T_37\[2\]
*762 txm\._T_37\[3\]
*763 txm\._T_37\[4\]
*764 txm\._T_37\[5\]
*765 txm\._T_37\[6\]
*766 txm\._T_37\[7\]
*767 txm\._T_37\[8\]
*768 txm\._T_66\[0\]
*769 txm\._T_66\[1\]
*770 txm\._T_66\[2\]
*771 txm\._T_66\[3\]
*772 txm\._T_66\[4\]
*773 txm\._T_66\[5\]
*774 txm\._T_66\[6\]
*775 txm\._T_66\[7\]
*776 txm\._T_68
*777 txm\.counter\[0\]
*778 txm\.counter\[1\]
*779 txm\.counter\[2\]
*780 txm\.counter\[3\]
*781 txm\.io_in_valid
*782 txm\.prescaler\[0\]
*783 txm\.prescaler\[1\]
*784 txm\.prescaler\[2\]
*785 txm\.prescaler\[3\]
*786 txm\.prescaler\[4\]
*787 txm\.prescaler\[5\]
*788 txm\.prescaler\[6\]
*789 txm\.prescaler\[7\]
*790 txm\.prescaler\[8\]
*791 txm\.prescaler\[9\]
*792 ANTENNA__0583__B
*793 ANTENNA__0583__C
*794 ANTENNA__0584__A
*795 ANTENNA__0585__A
*796 ANTENNA__0585__B
*797 ANTENNA__0585__C_N
*798 ANTENNA__0586__A
*799 ANTENNA__0587__B
*800 ANTENNA__0593__B1
*801 ANTENNA__0679__B1
*802 ANTENNA__0693__A
*803 ANTENNA__0696__A
*804 ANTENNA__0699__A
*805 ANTENNA__0702__A
*806 ANTENNA__0722__C1
*807 ANTENNA__0730__C1
*808 ANTENNA__0734__A
*809 ANTENNA__0740__C1
*810 ANTENNA__0751__C1
*811 ANTENNA__0756__B1
*812 ANTENNA__0758__A_N
*813 ANTENNA__0760__A
*814 ANTENNA__0761__A
*815 ANTENNA__0761__B
*816 ANTENNA__0761__C
*817 ANTENNA__0766__A
*818 ANTENNA__0767__A
*819 ANTENNA__0769__A_N
*820 ANTENNA__0769__B
*821 ANTENNA__0769__C
*822 ANTENNA__0784__C1
*823 ANTENNA__0791__C1
*824 ANTENNA__0796__C1
*825 ANTENNA__0801__C1
*826 ANTENNA__0838__A0
*827 ANTENNA__0842__A0
*828 ANTENNA__0845__A0
*829 ANTENNA__0848__A0
*830 ANTENNA__0851__A0
*831 ANTENNA__0854__A0
*832 ANTENNA__0865__A
*833 ANTENNA__0870__B1
*834 ANTENNA__0879__B1
*835 ANTENNA__0888__A
*836 ANTENNA__0896__B1
*837 ANTENNA__0900__A
*838 ANTENNA__0911__A1
*839 ANTENNA__0913__A1
*840 ANTENNA__0915__A1
*841 ANTENNA__0917__A1
*842 ANTENNA__0919__A1
*843 ANTENNA__0921__A1
*844 ANTENNA__0924__A1
*845 ANTENNA__0925__A_N
*846 ANTENNA__0925__B
*847 ANTENNA__0925__C
*848 ANTENNA__0925__D
*849 ANTENNA__0926__A
*850 ANTENNA__0929__A
*851 ANTENNA__0933__A0
*852 ANTENNA__0936__A0
*853 ANTENNA__0939__A0
*854 ANTENNA__0942__A0
*855 ANTENNA__0945__A0
*856 ANTENNA__0949__A0
*857 ANTENNA__0952__A0
*858 ANTENNA__0955__A0
*859 ANTENNA__0958__A
*860 ANTENNA__0959__B
*861 ANTENNA__0967__A1
*862 ANTENNA__0969__A1
*863 ANTENNA__0972__A1
*864 ANTENNA__0974__A1
*865 ANTENNA__0976__A1
*866 ANTENNA__0978__A1
*867 ANTENNA__0980__A1
*868 ANTENNA__1008__A
*869 ANTENNA__1014__A0
*870 ANTENNA__1017__A0
*871 ANTENNA__1020__A0
*872 ANTENNA__1023__A0
*873 ANTENNA__1026__A0
*874 ANTENNA__1029__A0
*875 ANTENNA__1032__A0
*876 ANTENNA__1046__B1
*877 ANTENNA__1076__D
*878 ANTENNA__1079__D
*879 ANTENNA_clkbuf_0_clock_A
*880 ANTENNA_clkbuf_3_0_0_clock_A
*881 ANTENNA_clkbuf_3_1_0_clock_A
*882 ANTENNA_clkbuf_3_2_0_clock_A
*883 ANTENNA_clkbuf_3_3_0_clock_A
*884 ANTENNA_clkbuf_3_4_0_clock_A
*885 ANTENNA_clkbuf_3_5_0_clock_A
*886 ANTENNA_clkbuf_3_6_0_clock_A
*887 ANTENNA_clkbuf_3_7_0_clock_A
*888 ANTENNA_input10_A
*889 ANTENNA_input11_A
*890 ANTENNA_input12_A
*891 ANTENNA_input13_A
*892 ANTENNA_input14_A
*893 ANTENNA_input15_A
*894 ANTENNA_input16_A
*895 ANTENNA_input17_A
*896 ANTENNA_input18_A
*897 ANTENNA_input19_A
*898 ANTENNA_input1_A
*899 ANTENNA_input20_A
*900 ANTENNA_input21_A
*901 ANTENNA_input2_A
*902 ANTENNA_input3_A
*903 ANTENNA_input4_A
*904 ANTENNA_input5_A
*905 ANTENNA_input6_A
*906 ANTENNA_input7_A
*907 ANTENNA_input8_A
*908 ANTENNA_input9_A
*909 FILLER_0_109
*910 FILLER_0_113
*911 FILLER_0_121
*912 FILLER_0_125
*913 FILLER_0_137
*914 FILLER_0_141
*915 FILLER_0_15
*916 FILLER_0_153
*917 FILLER_0_161
*918 FILLER_0_166
*919 FILLER_0_169
*920 FILLER_0_177
*921 FILLER_0_189
*922 FILLER_0_194
*923 FILLER_0_207
*924 FILLER_0_216
*925 FILLER_0_220
*926 FILLER_0_225
*927 FILLER_0_231
*928 FILLER_0_243
*929 FILLER_0_251
*930 FILLER_0_253
*931 FILLER_0_261
*932 FILLER_0_266
*933 FILLER_0_27
*934 FILLER_0_278
*935 FILLER_0_284
*936 FILLER_0_288
*937 FILLER_0_294
*938 FILLER_0_298
*939 FILLER_0_3
*940 FILLER_0_32
*941 FILLER_0_40
*942 FILLER_0_43
*943 FILLER_0_51
*944 FILLER_0_55
*945 FILLER_0_57
*946 FILLER_0_62
*947 FILLER_0_74
*948 FILLER_0_82
*949 FILLER_0_85
*950 FILLER_0_9
*951 FILLER_0_97
*952 FILLER_10_108
*953 FILLER_10_112
*954 FILLER_10_119
*955 FILLER_10_125
*956 FILLER_10_135
*957 FILLER_10_139
*958 FILLER_10_146
*959 FILLER_10_158
*960 FILLER_10_162
*961 FILLER_10_169
*962 FILLER_10_17
*963 FILLER_10_178
*964 FILLER_10_184
*965 FILLER_10_188
*966 FILLER_10_194
*967 FILLER_10_204
*968 FILLER_10_212
*969 FILLER_10_221
*970 FILLER_10_239
*971 FILLER_10_243
*972 FILLER_10_247
*973 FILLER_10_25
*974 FILLER_10_251
*975 FILLER_10_256
*976 FILLER_10_262
*977 FILLER_10_272
*978 FILLER_10_284
*979 FILLER_10_29
*980 FILLER_10_292
*981 FILLER_10_297
*982 FILLER_10_41
*983 FILLER_10_49
*984 FILLER_10_5
*985 FILLER_10_55
*986 FILLER_10_65
*987 FILLER_10_69
*988 FILLER_10_73
*989 FILLER_10_78
*990 FILLER_10_85
*991 FILLER_10_93
*992 FILLER_10_99
*993 FILLER_11_103
*994 FILLER_11_11
*995 FILLER_11_110
*996 FILLER_11_117
*997 FILLER_11_123
*998 FILLER_11_135
*999 FILLER_11_148
*1000 FILLER_11_166
*1001 FILLER_11_174
*1002 FILLER_11_181
*1003 FILLER_11_186
*1004 FILLER_11_190
*1005 FILLER_11_193
*1006 FILLER_11_199
*1007 FILLER_11_218
*1008 FILLER_11_225
*1009 FILLER_11_23
*1010 FILLER_11_231
*1011 FILLER_11_237
*1012 FILLER_11_259
*1013 FILLER_11_278
*1014 FILLER_11_281
*1015 FILLER_11_293
*1016 FILLER_11_3
*1017 FILLER_11_35
*1018 FILLER_11_54
*1019 FILLER_11_57
*1020 FILLER_11_61
*1021 FILLER_11_66
*1022 FILLER_11_70
*1023 FILLER_11_77
*1024 FILLER_11_95
*1025 FILLER_12_100
*1026 FILLER_12_111
*1027 FILLER_12_118
*1028 FILLER_12_13
*1029 FILLER_12_136
*1030 FILLER_12_141
*1031 FILLER_12_149
*1032 FILLER_12_155
*1033 FILLER_12_167
*1034 FILLER_12_176
*1035 FILLER_12_194
*1036 FILLER_12_197
*1037 FILLER_12_200
*1038 FILLER_12_207
*1039 FILLER_12_212
*1040 FILLER_12_220
*1041 FILLER_12_229
*1042 FILLER_12_241
*1043 FILLER_12_249
*1044 FILLER_12_25
*1045 FILLER_12_253
*1046 FILLER_12_257
*1047 FILLER_12_267
*1048 FILLER_12_272
*1049 FILLER_12_284
*1050 FILLER_12_29
*1051 FILLER_12_292
*1052 FILLER_12_297
*1053 FILLER_12_3
*1054 FILLER_12_41
*1055 FILLER_12_69
*1056 FILLER_12_77
*1057 FILLER_12_83
*1058 FILLER_12_85
*1059 FILLER_12_9
*1060 FILLER_12_93
*1061 FILLER_13_107
*1062 FILLER_13_111
*1063 FILLER_13_113
*1064 FILLER_13_122
*1065 FILLER_13_128
*1066 FILLER_13_143
*1067 FILLER_13_149
*1068 FILLER_13_15
*1069 FILLER_13_161
*1070 FILLER_13_166
*1071 FILLER_13_172
*1072 FILLER_13_180
*1073 FILLER_13_200
*1074 FILLER_13_213
*1075 FILLER_13_217
*1076 FILLER_13_222
*1077 FILLER_13_241
*1078 FILLER_13_254
*1079 FILLER_13_265
*1080 FILLER_13_27
*1081 FILLER_13_276
*1082 FILLER_13_281
*1083 FILLER_13_293
*1084 FILLER_13_3
*1085 FILLER_13_39
*1086 FILLER_13_45
*1087 FILLER_13_52
*1088 FILLER_13_57
*1089 FILLER_13_63
*1090 FILLER_13_70
*1091 FILLER_13_76
*1092 FILLER_13_83
*1093 FILLER_13_89
*1094 FILLER_14_104
*1095 FILLER_14_108
*1096 FILLER_14_119
*1097 FILLER_14_125
*1098 FILLER_14_132
*1099 FILLER_14_137
*1100 FILLER_14_144
*1101 FILLER_14_15
*1102 FILLER_14_151
*1103 FILLER_14_160
*1104 FILLER_14_175
*1105 FILLER_14_183
*1106 FILLER_14_189
*1107 FILLER_14_193
*1108 FILLER_14_197
*1109 FILLER_14_201
*1110 FILLER_14_219
*1111 FILLER_14_232
*1112 FILLER_14_250
*1113 FILLER_14_262
*1114 FILLER_14_27
*1115 FILLER_14_282
*1116 FILLER_14_287
*1117 FILLER_14_29
*1118 FILLER_14_3
*1119 FILLER_14_41
*1120 FILLER_14_60
*1121 FILLER_14_68
*1122 FILLER_14_80
*1123 FILLER_14_92
*1124 FILLER_15_103
*1125 FILLER_15_108
*1126 FILLER_15_129
*1127 FILLER_15_141
*1128 FILLER_15_148
*1129 FILLER_15_158
*1130 FILLER_15_166
*1131 FILLER_15_169
*1132 FILLER_15_175
*1133 FILLER_15_18
*1134 FILLER_15_194
*1135 FILLER_15_200
*1136 FILLER_15_207
*1137 FILLER_15_214
*1138 FILLER_15_218
*1139 FILLER_15_222
*1140 FILLER_15_225
*1141 FILLER_15_236
*1142 FILLER_15_241
*1143 FILLER_15_259
*1144 FILLER_15_263
*1145 FILLER_15_273
*1146 FILLER_15_278
*1147 FILLER_15_281
*1148 FILLER_15_297
*1149 FILLER_15_30
*1150 FILLER_15_42
*1151 FILLER_15_46
*1152 FILLER_15_50
*1153 FILLER_15_57
*1154 FILLER_15_6
*1155 FILLER_15_63
*1156 FILLER_15_70
*1157 FILLER_15_75
*1158 FILLER_15_79
*1159 FILLER_15_85
*1160 FILLER_16_111
*1161 FILLER_16_117
*1162 FILLER_16_128
*1163 FILLER_16_137
*1164 FILLER_16_145
*1165 FILLER_16_15
*1166 FILLER_16_154
*1167 FILLER_16_158
*1168 FILLER_16_161
*1169 FILLER_16_165
*1170 FILLER_16_171
*1171 FILLER_16_175
*1172 FILLER_16_193
*1173 FILLER_16_199
*1174 FILLER_16_217
*1175 FILLER_16_236
*1176 FILLER_16_248
*1177 FILLER_16_255
*1178 FILLER_16_266
*1179 FILLER_16_27
*1180 FILLER_16_284
*1181 FILLER_16_29
*1182 FILLER_16_296
*1183 FILLER_16_3
*1184 FILLER_16_53
*1185 FILLER_16_61
*1186 FILLER_16_68
*1187 FILLER_16_73
*1188 FILLER_16_82
*1189 FILLER_16_89
*1190 FILLER_16_97
*1191 FILLER_17_107
*1192 FILLER_17_111
*1193 FILLER_17_115
*1194 FILLER_17_122
*1195 FILLER_17_127
*1196 FILLER_17_131
*1197 FILLER_17_139
*1198 FILLER_17_15
*1199 FILLER_17_157
*1200 FILLER_17_163
*1201 FILLER_17_167
*1202 FILLER_17_185
*1203 FILLER_17_189
*1204 FILLER_17_195
*1205 FILLER_17_201
*1206 FILLER_17_205
*1207 FILLER_17_215
*1208 FILLER_17_220
*1209 FILLER_17_225
*1210 FILLER_17_231
*1211 FILLER_17_236
*1212 FILLER_17_241
*1213 FILLER_17_247
*1214 FILLER_17_259
*1215 FILLER_17_265
*1216 FILLER_17_27
*1217 FILLER_17_275
*1218 FILLER_17_279
*1219 FILLER_17_281
*1220 FILLER_17_291
*1221 FILLER_17_297
*1222 FILLER_17_3
*1223 FILLER_17_39
*1224 FILLER_17_43
*1225 FILLER_17_47
*1226 FILLER_17_53
*1227 FILLER_17_57
*1228 FILLER_17_67
*1229 FILLER_17_71
*1230 FILLER_17_82
*1231 FILLER_17_92
*1232 FILLER_17_97
*1233 FILLER_18_101
*1234 FILLER_18_119
*1235 FILLER_18_138
*1236 FILLER_18_141
*1237 FILLER_18_15
*1238 FILLER_18_150
*1239 FILLER_18_160
*1240 FILLER_18_169
*1241 FILLER_18_173
*1242 FILLER_18_182
*1243 FILLER_18_187
*1244 FILLER_18_191
*1245 FILLER_18_195
*1246 FILLER_18_199
*1247 FILLER_18_205
*1248 FILLER_18_209
*1249 FILLER_18_219
*1250 FILLER_18_227
*1251 FILLER_18_238
*1252 FILLER_18_245
*1253 FILLER_18_250
*1254 FILLER_18_258
*1255 FILLER_18_262
*1256 FILLER_18_27
*1257 FILLER_18_280
*1258 FILLER_18_29
*1259 FILLER_18_292
*1260 FILLER_18_298
*1261 FILLER_18_3
*1262 FILLER_18_41
*1263 FILLER_18_47
*1264 FILLER_18_56
*1265 FILLER_18_64
*1266 FILLER_18_72
*1267 FILLER_18_76
*1268 FILLER_18_82
*1269 FILLER_18_90
*1270 FILLER_19_103
*1271 FILLER_19_109
*1272 FILLER_19_120
*1273 FILLER_19_128
*1274 FILLER_19_133
*1275 FILLER_19_140
*1276 FILLER_19_147
*1277 FILLER_19_15
*1278 FILLER_19_154
*1279 FILLER_19_159
*1280 FILLER_19_166
*1281 FILLER_19_169
*1282 FILLER_19_175
*1283 FILLER_19_182
*1284 FILLER_19_189
*1285 FILLER_19_197
*1286 FILLER_19_204
*1287 FILLER_19_222
*1288 FILLER_19_229
*1289 FILLER_19_247
*1290 FILLER_19_251
*1291 FILLER_19_262
*1292 FILLER_19_267
*1293 FILLER_19_27
*1294 FILLER_19_272
*1295 FILLER_19_276
*1296 FILLER_19_281
*1297 FILLER_19_293
*1298 FILLER_19_297
*1299 FILLER_19_3
*1300 FILLER_19_35
*1301 FILLER_19_52
*1302 FILLER_19_57
*1303 FILLER_19_61
*1304 FILLER_19_67
*1305 FILLER_19_72
*1306 FILLER_19_81
*1307 FILLER_19_88
*1308 FILLER_19_92
*1309 FILLER_1_102
*1310 FILLER_1_110
*1311 FILLER_1_113
*1312 FILLER_1_131
*1313 FILLER_1_149
*1314 FILLER_1_161
*1315 FILLER_1_167
*1316 FILLER_1_169
*1317 FILLER_1_17
*1318 FILLER_1_181
*1319 FILLER_1_193
*1320 FILLER_1_210
*1321 FILLER_1_222
*1322 FILLER_1_225
*1323 FILLER_1_237
*1324 FILLER_1_249
*1325 FILLER_1_261
*1326 FILLER_1_273
*1327 FILLER_1_279
*1328 FILLER_1_281
*1329 FILLER_1_29
*1330 FILLER_1_297
*1331 FILLER_1_41
*1332 FILLER_1_5
*1333 FILLER_1_53
*1334 FILLER_1_57
*1335 FILLER_1_74
*1336 FILLER_1_78
*1337 FILLER_1_90
*1338 FILLER_20_100
*1339 FILLER_20_104
*1340 FILLER_20_112
*1341 FILLER_20_120
*1342 FILLER_20_131
*1343 FILLER_20_136
*1344 FILLER_20_144
*1345 FILLER_20_148
*1346 FILLER_20_15
*1347 FILLER_20_152
*1348 FILLER_20_157
*1349 FILLER_20_162
*1350 FILLER_20_170
*1351 FILLER_20_174
*1352 FILLER_20_183
*1353 FILLER_20_194
*1354 FILLER_20_207
*1355 FILLER_20_214
*1356 FILLER_20_220
*1357 FILLER_20_225
*1358 FILLER_20_238
*1359 FILLER_20_242
*1360 FILLER_20_248
*1361 FILLER_20_253
*1362 FILLER_20_263
*1363 FILLER_20_27
*1364 FILLER_20_281
*1365 FILLER_20_29
*1366 FILLER_20_293
*1367 FILLER_20_3
*1368 FILLER_20_41
*1369 FILLER_20_53
*1370 FILLER_20_64
*1371 FILLER_20_71
*1372 FILLER_20_82
*1373 FILLER_20_93
*1374 FILLER_21_107
*1375 FILLER_21_111
*1376 FILLER_21_113
*1377 FILLER_21_118
*1378 FILLER_21_128
*1379 FILLER_21_132
*1380 FILLER_21_142
*1381 FILLER_21_160
*1382 FILLER_21_166
*1383 FILLER_21_179
*1384 FILLER_21_18
*1385 FILLER_21_186
*1386 FILLER_21_191
*1387 FILLER_21_197
*1388 FILLER_21_202
*1389 FILLER_21_208
*1390 FILLER_21_213
*1391 FILLER_21_219
*1392 FILLER_21_223
*1393 FILLER_21_241
*1394 FILLER_21_254
*1395 FILLER_21_262
*1396 FILLER_21_269
*1397 FILLER_21_273
*1398 FILLER_21_277
*1399 FILLER_21_281
*1400 FILLER_21_291
*1401 FILLER_21_297
*1402 FILLER_21_30
*1403 FILLER_21_54
*1404 FILLER_21_57
*1405 FILLER_21_6
*1406 FILLER_21_61
*1407 FILLER_21_66
*1408 FILLER_21_71
*1409 FILLER_21_83
*1410 FILLER_21_89
*1411 FILLER_22_104
*1412 FILLER_22_110
*1413 FILLER_22_127
*1414 FILLER_22_133
*1415 FILLER_22_138
*1416 FILLER_22_149
*1417 FILLER_22_15
*1418 FILLER_22_157
*1419 FILLER_22_166
*1420 FILLER_22_178
*1421 FILLER_22_188
*1422 FILLER_22_193
*1423 FILLER_22_203
*1424 FILLER_22_210
*1425 FILLER_22_216
*1426 FILLER_22_222
*1427 FILLER_22_230
*1428 FILLER_22_235
*1429 FILLER_22_240
*1430 FILLER_22_245
*1431 FILLER_22_250
*1432 FILLER_22_269
*1433 FILLER_22_27
*1434 FILLER_22_287
*1435 FILLER_22_29
*1436 FILLER_22_3
*1437 FILLER_22_41
*1438 FILLER_22_53
*1439 FILLER_22_75
*1440 FILLER_22_83
*1441 FILLER_22_88
*1442 FILLER_22_92
*1443 FILLER_23_107
*1444 FILLER_23_111
*1445 FILLER_23_113
*1446 FILLER_23_119
*1447 FILLER_23_125
*1448 FILLER_23_129
*1449 FILLER_23_133
*1450 FILLER_23_138
*1451 FILLER_23_142
*1452 FILLER_23_145
*1453 FILLER_23_149
*1454 FILLER_23_15
*1455 FILLER_23_159
*1456 FILLER_23_166
*1457 FILLER_23_179
*1458 FILLER_23_187
*1459 FILLER_23_191
*1460 FILLER_23_202
*1461 FILLER_23_209
*1462 FILLER_23_216
*1463 FILLER_23_222
*1464 FILLER_23_228
*1465 FILLER_23_240
*1466 FILLER_23_247
*1467 FILLER_23_251
*1468 FILLER_23_255
*1469 FILLER_23_259
*1470 FILLER_23_263
*1471 FILLER_23_27
*1472 FILLER_23_275
*1473 FILLER_23_279
*1474 FILLER_23_281
*1475 FILLER_23_293
*1476 FILLER_23_3
*1477 FILLER_23_39
*1478 FILLER_23_51
*1479 FILLER_23_55
*1480 FILLER_23_57
*1481 FILLER_23_69
*1482 FILLER_23_89
*1483 FILLER_24_106
*1484 FILLER_24_113
*1485 FILLER_24_131
*1486 FILLER_24_138
*1487 FILLER_24_15
*1488 FILLER_24_158
*1489 FILLER_24_180
*1490 FILLER_24_192
*1491 FILLER_24_207
*1492 FILLER_24_215
*1493 FILLER_24_222
*1494 FILLER_24_229
*1495 FILLER_24_236
*1496 FILLER_24_246
*1497 FILLER_24_250
*1498 FILLER_24_269
*1499 FILLER_24_27
*1500 FILLER_24_281
*1501 FILLER_24_29
*1502 FILLER_24_293
*1503 FILLER_24_297
*1504 FILLER_24_3
*1505 FILLER_24_41
*1506 FILLER_24_47
*1507 FILLER_24_65
*1508 FILLER_24_76
*1509 FILLER_24_81
*1510 FILLER_24_85
*1511 FILLER_24_94
*1512 FILLER_25_105
*1513 FILLER_25_110
*1514 FILLER_25_122
*1515 FILLER_25_130
*1516 FILLER_25_137
*1517 FILLER_25_147
*1518 FILLER_25_15
*1519 FILLER_25_156
*1520 FILLER_25_166
*1521 FILLER_25_171
*1522 FILLER_25_183
*1523 FILLER_25_189
*1524 FILLER_25_201
*1525 FILLER_25_209
*1526 FILLER_25_220
*1527 FILLER_25_233
*1528 FILLER_25_237
*1529 FILLER_25_246
*1530 FILLER_25_264
*1531 FILLER_25_268
*1532 FILLER_25_27
*1533 FILLER_25_281
*1534 FILLER_25_293
*1535 FILLER_25_3
*1536 FILLER_25_39
*1537 FILLER_25_47
*1538 FILLER_25_54
*1539 FILLER_25_57
*1540 FILLER_25_65
*1541 FILLER_25_76
*1542 FILLER_25_87
*1543 FILLER_26_106
*1544 FILLER_26_112
*1545 FILLER_26_118
*1546 FILLER_26_122
*1547 FILLER_26_130
*1548 FILLER_26_138
*1549 FILLER_26_148
*1550 FILLER_26_156
*1551 FILLER_26_165
*1552 FILLER_26_169
*1553 FILLER_26_177
*1554 FILLER_26_188
*1555 FILLER_26_19
*1556 FILLER_26_194
*1557 FILLER_26_204
*1558 FILLER_26_208
*1559 FILLER_26_214
*1560 FILLER_26_221
*1561 FILLER_26_232
*1562 FILLER_26_238
*1563 FILLER_26_248
*1564 FILLER_26_258
*1565 FILLER_26_262
*1566 FILLER_26_27
*1567 FILLER_26_274
*1568 FILLER_26_286
*1569 FILLER_26_29
*1570 FILLER_26_297
*1571 FILLER_26_41
*1572 FILLER_26_53
*1573 FILLER_26_65
*1574 FILLER_26_7
*1575 FILLER_26_82
*1576 FILLER_26_85
*1577 FILLER_26_97
*1578 FILLER_27_109
*1579 FILLER_27_129
*1580 FILLER_27_135
*1581 FILLER_27_146
*1582 FILLER_27_153
*1583 FILLER_27_165
*1584 FILLER_27_169
*1585 FILLER_27_173
*1586 FILLER_27_18
*1587 FILLER_27_184
*1588 FILLER_27_192
*1589 FILLER_27_196
*1590 FILLER_27_200
*1591 FILLER_27_217
*1592 FILLER_27_222
*1593 FILLER_27_230
*1594 FILLER_27_244
*1595 FILLER_27_264
*1596 FILLER_27_276
*1597 FILLER_27_281
*1598 FILLER_27_291
*1599 FILLER_27_297
*1600 FILLER_27_30
*1601 FILLER_27_42
*1602 FILLER_27_50
*1603 FILLER_27_54
*1604 FILLER_27_6
*1605 FILLER_27_62
*1606 FILLER_27_73
*1607 FILLER_27_79
*1608 FILLER_27_83
*1609 FILLER_27_90
*1610 FILLER_27_97
*1611 FILLER_28_101
*1612 FILLER_28_105
*1613 FILLER_28_110
*1614 FILLER_28_114
*1615 FILLER_28_118
*1616 FILLER_28_123
*1617 FILLER_28_130
*1618 FILLER_28_137
*1619 FILLER_28_149
*1620 FILLER_28_15
*1621 FILLER_28_153
*1622 FILLER_28_162
*1623 FILLER_28_166
*1624 FILLER_28_184
*1625 FILLER_28_193
*1626 FILLER_28_206
*1627 FILLER_28_216
*1628 FILLER_28_220
*1629 FILLER_28_228
*1630 FILLER_28_234
*1631 FILLER_28_242
*1632 FILLER_28_249
*1633 FILLER_28_255
*1634 FILLER_28_267
*1635 FILLER_28_27
*1636 FILLER_28_279
*1637 FILLER_28_29
*1638 FILLER_28_291
*1639 FILLER_28_3
*1640 FILLER_28_41
*1641 FILLER_28_69
*1642 FILLER_28_73
*1643 FILLER_28_78
*1644 FILLER_29_100
*1645 FILLER_29_106
*1646 FILLER_29_129
*1647 FILLER_29_136
*1648 FILLER_29_145
*1649 FILLER_29_15
*1650 FILLER_29_154
*1651 FILLER_29_166
*1652 FILLER_29_179
*1653 FILLER_29_183
*1654 FILLER_29_202
*1655 FILLER_29_206
*1656 FILLER_29_213
*1657 FILLER_29_220
*1658 FILLER_29_233
*1659 FILLER_29_244
*1660 FILLER_29_262
*1661 FILLER_29_27
*1662 FILLER_29_274
*1663 FILLER_29_281
*1664 FILLER_29_293
*1665 FILLER_29_3
*1666 FILLER_29_35
*1667 FILLER_29_54
*1668 FILLER_29_57
*1669 FILLER_29_66
*1670 FILLER_29_78
*1671 FILLER_29_84
*1672 FILLER_29_96
*1673 FILLER_2_105
*1674 FILLER_2_110
*1675 FILLER_2_117
*1676 FILLER_2_123
*1677 FILLER_2_127
*1678 FILLER_2_132
*1679 FILLER_2_138
*1680 FILLER_2_141
*1681 FILLER_2_15
*1682 FILLER_2_153
*1683 FILLER_2_161
*1684 FILLER_2_180
*1685 FILLER_2_188
*1686 FILLER_2_203
*1687 FILLER_2_210
*1688 FILLER_2_229
*1689 FILLER_2_241
*1690 FILLER_2_249
*1691 FILLER_2_269
*1692 FILLER_2_27
*1693 FILLER_2_281
*1694 FILLER_2_29
*1695 FILLER_2_293
*1696 FILLER_2_3
*1697 FILLER_2_41
*1698 FILLER_2_53
*1699 FILLER_2_65
*1700 FILLER_2_77
*1701 FILLER_2_83
*1702 FILLER_2_85
*1703 FILLER_2_97