*SPEF "ieee 1481-1999"
*DESIGN "UART"
*DATE "11:11:11 Fri 11 11, 1111"
*VENDOR "OpenRCX"
*PROGRAM "Parallel Extraction"
*VERSION "1.0"
*DESIGN_FLOW "NAME_SCOPE LOCAL" "PIN_CAP NONE"
*DIVIDER /
*DELIMITER :
*BUS_DELIMITER []
*T_UNIT 1 NS
*C_UNIT 1 PF
*R_UNIT 1 OHM
*L_UNIT 1 HENRY

*NAME_MAP
*1 clock
*2 io_rxd
*3 io_txd
*4 io_uartInt
*5 io_uart_select
*6 io_wbs_ack_o
*7 io_wbs_data_o[0]
*8 net35
*9 net36
*10 net37
*11 net38
*12 net39
*13 net40
*14 net41
*15 net42
*16 net43
*17 net44
*18 io_wbs_data_o[1]
*19 net45
*20 net46
*21 net47
*22 net48
*23 net49
*24 net50
*25 net51
*26 net52
*27 net53
*28 net54
*29 io_wbs_data_o[2]
*30 net55
*31 net56
*32 io_wbs_data_o[3]
*33 io_wbs_data_o[4]
*34 io_wbs_data_o[5]
*35 io_wbs_data_o[6]
*36 io_wbs_data_o[7]
*37 net33
*38 net34
*39 io_wbs_m2s_addr[0]
*40 io_wbs_m2s_addr[10]
*41 io_wbs_m2s_addr[11]
*42 io_wbs_m2s_addr[12]
*43 io_wbs_m2s_addr[13]
*44 io_wbs_m2s_addr[14]
*45 io_wbs_m2s_addr[15]
*46 io_wbs_m2s_addr[1]
*47 io_wbs_m2s_addr[2]
*48 io_wbs_m2s_addr[3]
*49 io_wbs_m2s_addr[4]
*50 io_wbs_m2s_addr[5]
*51 io_wbs_m2s_addr[6]
*52 io_wbs_m2s_addr[7]
*53 io_wbs_m2s_addr[8]
*54 io_wbs_m2s_addr[9]
*55 io_wbs_m2s_data[0]
*56 io_wbs_m2s_data[10]
*57 io_wbs_m2s_data[11]
*58 io_wbs_m2s_data[12]
*59 io_wbs_m2s_data[13]
*60 io_wbs_m2s_data[14]
*61 io_wbs_m2s_data[15]
*62 io_wbs_m2s_data[16]
*63 io_wbs_m2s_data[17]
*64 io_wbs_m2s_data[18]
*65 io_wbs_m2s_data[19]
*66 io_wbs_m2s_data[1]
*67 io_wbs_m2s_data[20]
*68 io_wbs_m2s_data[21]
*69 io_wbs_m2s_data[22]
*70 io_wbs_m2s_data[23]
*71 io_wbs_m2s_data[24]
*72 io_wbs_m2s_data[25]
*73 io_wbs_m2s_data[26]
*74 io_wbs_m2s_data[27]
*75 io_wbs_m2s_data[28]
*76 io_wbs_m2s_data[29]
*77 io_wbs_m2s_data[2]
*78 io_wbs_m2s_data[30]
*79 io_wbs_m2s_data[31]
*80 io_wbs_m2s_data[3]
*81 io_wbs_m2s_data[4]
*82 io_wbs_m2s_data[5]
*83 io_wbs_m2s_data[6]
*84 io_wbs_m2s_data[7]
*85 io_wbs_m2s_data[8]
*86 io_wbs_m2s_data[9]
*87 io_wbs_m2s_stb
*88 io_wbs_m2s_we
*89 reset
*92 _0000_
*93 _0001_
*94 _0002_
*95 _0003_
*96 _0004_
*97 _0005_
*98 _0006_
*99 _0007_
*100 _0008_
*101 _0009_
*102 _0010_
*103 _0011_
*104 _0012_
*105 _0013_
*106 _0014_
*107 _0015_
*108 _0016_
*109 _0017_
*110 _0018_
*111 _0019_
*112 _0020_
*113 _0021_
*114 _0022_
*115 _0023_
*116 _0024_
*117 _0025_
*118 _0026_
*119 _0027_
*120 _0028_
*121 _0029_
*122 _0030_
*123 _0031_
*124 _0032_
*125 _0033_
*126 _0034_
*127 _0035_
*128 _0036_
*129 _0037_
*130 _0038_
*131 _0039_
*132 _0040_
*133 _0041_
*134 _0042_
*135 _0043_
*136 _0044_
*137 _0045_
*138 _0046_
*139 _0047_
*140 _0048_
*141 _0049_
*142 _0050_
*143 _0051_
*144 _0052_
*145 _0053_
*146 _0054_
*147 _0055_
*148 _0056_
*149 _0057_
*150 _0058_
*151 _0059_
*152 _0060_
*153 _0061_
*154 _0062_
*155 _0063_
*156 _0064_
*157 _0065_
*158 _0066_
*159 _0067_
*160 _0068_
*161 _0069_
*162 _0070_
*163 _0071_
*164 _0072_
*165 _0073_
*166 _0074_
*167 _0075_
*168 _0076_
*169 _0077_
*170 _0078_
*171 _0079_
*172 _0080_
*173 _0081_
*174 _0082_
*175 _0083_
*176 _0084_
*177 _0085_
*178 _0086_
*179 _0087_
*180 _0088_
*181 _0089_
*182 _0090_
*183 _0091_
*184 _0092_
*185 _0093_
*186 _0094_
*187 _0095_
*188 _0096_
*189 _0097_
*190 _0098_
*191 _0099_
*192 _0100_
*193 _0101_
*194 _0102_
*195 _0103_
*196 _0104_
*197 _0105_
*198 _0106_
*199 _0107_
*200 _0108_
*201 _0109_
*202 _0110_
*203 _0111_
*204 _0112_
*205 _0113_
*206 _0114_
*207 _0115_
*208 _0116_
*209 _0117_
*210 _0118_
*211 _0119_
*212 _0120_
*213 _0121_
*214 _0122_
*215 _0123_
*216 _0124_
*217 _0125_
*218 _0126_
*219 _0127_
*220 _0128_
*221 _0129_
*222 _0130_
*223 _0131_
*224 _0132_
*225 _0133_
*226 _0134_
*227 _0135_
*228 _0136_
*229 _0137_
*230 _0138_
*231 _0139_
*232 _0140_
*233 _0141_
*234 _0142_
*235 _0143_
*236 _0144_
*237 _0145_
*238 _0146_
*239 _0147_
*240 _0148_
*241 _0149_
*242 _0150_
*243 _0151_
*244 _0152_
*245 _0153_
*246 _0154_
*247 _0155_
*248 _0156_
*249 _0157_
*250 _0158_
*251 _0159_
*252 _0160_
*253 _0161_
*254 _0162_
*255 _0163_
*256 _0164_
*257 _0165_
*258 _0166_
*259 _0167_
*260 _0168_
*261 _0169_
*262 _0170_
*263 _0171_
*264 _0172_
*265 _0173_
*266 _0174_
*267 _0175_
*268 _0176_
*269 _0177_
*270 _0178_
*271 _0179_
*272 _0180_
*273 _0181_
*274 _0182_
*275 _0183_
*276 _0184_
*277 _0185_
*278 _0186_
*279 _0187_
*280 _0188_
*281 _0189_
*282 _0190_
*283 _0191_
*284 _0192_
*285 _0193_
*286 _0194_
*287 _0195_
*288 _0196_
*289 _0197_
*290 _0198_
*291 _0199_
*292 _0200_
*293 _0201_
*294 _0202_
*295 _0203_
*296 _0204_
*297 _0205_
*298 _0206_
*299 _0207_
*300 _0208_
*301 _0209_
*302 _0210_
*303 _0211_
*304 _0212_
*305 _0213_
*306 _0214_
*307 _0215_
*308 _0216_
*309 _0217_
*310 _0218_
*311 _0219_
*312 _0220_
*313 _0221_
*314 _0222_
*315 _0223_
*316 _0224_
*317 _0225_
*318 _0226_
*319 _0227_
*320 _0228_
*321 _0229_
*322 _0230_
*323 _0231_
*324 _0232_
*325 _0233_
*326 _0234_
*327 _0235_
*328 _0236_
*329 _0237_
*330 _0238_
*331 _0239_
*332 _0240_
*333 _0241_
*334 _0242_
*335 _0243_
*336 _0244_
*337 _0245_
*338 _0246_
*339 _0247_
*340 _0248_
*341 _0249_
*342 _0250_
*343 _0251_
*344 _0252_
*345 _0253_
*346 _0254_
*347 _0255_
*348 _0256_
*349 _0257_
*350 _0258_
*351 _0259_
*352 _0260_
*353 _0261_
*354 _0262_
*355 _0263_
*356 _0264_
*357 _0265_
*358 _0266_
*359 _0267_
*360 _0268_
*361 _0269_
*362 _0270_
*363 _0271_
*364 _0272_
*365 _0273_
*366 _0274_
*367 _0275_
*368 _0276_
*369 _0277_
*370 _0278_
*371 _0279_
*372 _0280_
*373 _0281_
*374 _0282_
*375 _0283_
*376 _0284_
*377 _0285_
*378 _0286_
*379 _0287_
*380 _0288_
*381 _0289_
*382 _0290_
*383 _0291_
*384 _0292_
*385 _0293_
*386 _0294_
*387 _0295_
*388 _0296_
*389 _0297_
*390 _0298_
*391 _0299_
*392 _0300_
*393 _0301_
*394 _0302_
*395 _0303_
*396 _0304_
*397 _0305_
*398 _0306_
*399 _0307_
*400 _0308_
*401 _0309_
*402 _0310_
*403 _0311_
*404 _0312_
*405 _0313_
*406 _0314_
*407 _0315_
*408 _0316_
*409 _0317_
*410 _0318_
*411 _0319_
*412 _0320_
*413 _0321_
*414 _0322_
*415 _0323_
*416 _0324_
*417 _0325_
*418 _0326_
*419 _0327_
*420 _0328_
*421 _0329_
*422 _0330_
*423 _0331_
*424 _0332_
*425 _0333_
*426 _0334_
*427 _0335_
*428 _0336_
*429 _0337_
*430 _0338_
*431 _0339_
*432 _0340_
*433 _0341_
*434 _0342_
*435 _0343_
*436 _0344_
*437 _0345_
*438 _0346_
*439 _0347_
*440 _0348_
*441 _0349_
*442 _0350_
*443 _0351_
*444 _0352_
*445 _0353_
*446 _0354_
*447 _0355_
*448 _0356_
*449 _0357_
*450 _0358_
*451 _0359_
*452 _0360_
*453 _0361_
*454 _0362_
*455 _0363_
*456 _0364_
*457 _0365_
*458 _0366_
*459 _0367_
*460 _0368_
*461 _0369_
*462 _0370_
*463 _0371_
*464 _0372_
*465 _0373_
*466 _0374_
*467 _0375_
*468 _0376_
*469 _0377_
*470 _0378_
*471 _0379_
*472 _0380_
*473 _0381_
*474 _0382_
*475 _0383_
*476 _0384_
*477 _0385_
*478 _0386_
*479 _0387_
*480 _0388_
*481 _0389_
*482 _0390_
*483 _0391_
*484 _0392_
*485 _0393_
*486 _0394_
*487 _0395_
*488 _0396_
*489 _0397_
*490 _0398_
*491 _0399_
*492 _0400_
*493 _0401_
*494 _0402_
*495 _0403_
*496 _0404_
*497 _0405_
*498 _0406_
*499 _0407_
*500 _0408_
*501 _0409_
*502 _0410_
*503 _0411_
*504 _0412_
*505 _0413_
*506 _0414_
*507 _0415_
*508 _0416_
*509 _0417_
*510 _0418_
*511 _0419_
*512 _0420_
*513 _0421_
*514 _0422_
*515 _0423_
*516 _0424_
*517 _0425_
*518 _0426_
*519 _0427_
*520 _0428_
*521 _0429_
*522 _0430_
*523 _0431_
*524 _0432_
*525 _0433_
*526 _0434_
*527 _0435_
*528 _0436_
*529 _0437_
*530 _0438_
*531 _0439_
*532 _0440_
*533 _0441_
*534 _0442_
*535 _0443_
*536 _0444_
*537 _0445_
*538 _0446_
*539 _0447_
*540 _0448_
*541 _0449_
*542 _0450_
*543 _0451_
*544 _0452_
*545 _0453_
*546 _0454_
*547 _0455_
*548 _0456_
*549 _0457_
*550 _0458_
*551 _0459_
*552 _0460_
*553 _0461_
*554 _0462_
*555 _0463_
*556 _0464_
*557 _0465_
*558 _0466_
*559 _0467_
*560 _0468_
*561 _0469_
*562 _0470_
*563 _0471_
*564 _0472_
*565 _0473_
*566 _0474_
*567 _0475_
*568 _0476_
*569 _0477_
*570 _0478_
*571 _0479_
*572 _0480_
*573 _0481_
*574 _0482_
*575 _0483_
*576 _0484_
*577 _0485_
*578 _0486_
*579 _0487_
*580 _0488_
*581 _0489_
*582 _0490_
*583 _0491_
*584 _0492_
*585 _0493_
*586 _0494_
*587 _0495_
*588 _0496_
*589 _0497_
*590 _0498_
*591 _0499_
*592 _0500_
*593 _0501_
*594 _0502_
*595 _0503_
*596 _0504_
*597 _0505_
*598 _0506_
*599 _0507_
*600 _0508_
*601 _0509_
*602 _0510_
*603 _0511_
*604 _0512_
*605 _0513_
*606 _0514_
*607 _0515_
*608 _0516_
*609 _0517_
*610 _0518_
*611 _0519_
*612 _0520_
*613 _0521_
*614 _T_100
*615 _T_102\[2\]
*616 _T_102\[3\]
*617 _T_102\[4\]
*618 _T_102\[5\]
*619 _T_102\[6\]
*620 _T_102\[7\]
*621 _T_94\[0\]
*622 clknet_0_clock
*623 clknet_3_0_0_clock
*624 clknet_3_1_0_clock
*625 clknet_3_2_0_clock
*626 clknet_3_3_0_clock
*627 clknet_3_4_0_clock
*628 clknet_3_5_0_clock
*629 clknet_3_6_0_clock
*630 clknet_3_7_0_clock
*631 clknet_4_0_0_clock
*632 clknet_4_10_0_clock
*633 clknet_4_11_0_clock
*634 clknet_4_12_0_clock
*635 clknet_4_13_0_clock
*636 clknet_4_14_0_clock
*637 clknet_4_15_0_clock
*638 clknet_4_1_0_clock
*639 clknet_4_2_0_clock
*640 clknet_4_3_0_clock
*641 clknet_4_4_0_clock
*642 clknet_4_5_0_clock
*643 clknet_4_6_0_clock
*644 clknet_4_7_0_clock
*645 clknet_4_8_0_clock
*646 clknet_4_9_0_clock
*647 control_r\[0\]
*648 control_r\[1\]
*649 control_r\[2\]
*650 control_r\[3\]
*651 control_r\[4\]
*652 control_r\[5\]
*653 control_r\[6\]
*654 control_r\[7\]
*655 int_mask_r\[0\]
*656 int_mask_r\[1\]
*657 int_mask_r\[2\]
*658 int_mask_r\[3\]
*659 int_mask_r\[4\]
*660 int_mask_r\[5\]
*661 int_mask_r\[6\]
*662 int_mask_r\[7\]
*663 net1
*664 net10
*665 net11
*666 net12
*667 net13
*668 net14
*669 net15
*670 net16
*671 net17
*672 net18
*673 net19
*674 net2
*675 net20
*676 net21
*677 net22
*678 net23
*679 net24
*680 net25
*681 net26
*682 net27
*683 net28
*684 net29
*685 net3
*686 net30
*687 net31
*688 net32
*689 net4
*690 net5
*691 net6
*692 net7
*693 net8
*694 net9
*695 rx_data_r\[0\]
*696 rx_data_r\[1\]
*697 rx_data_r\[2\]
*698 rx_data_r\[3\]
*699 rx_data_r\[4\]
*700 rx_data_r\[5\]
*701 rx_data_r\[6\]
*702 rx_data_r\[7\]
*703 rxm\._GEN_28\[0\]
*704 rxm\._GEN_28\[1\]
*705 rxm\._GEN_28\[2\]
*706 rxm\._GEN_28\[3\]
*707 rxm\._GEN_28\[4\]
*708 rxm\._GEN_28\[5\]
*709 rxm\._GEN_28\[6\]
*710 rxm\._GEN_28\[7\]
*711 rxm\._GEN_28\[8\]
*712 rxm\._T_29\[0\]
*713 rxm\._T_29\[1\]
*714 rxm\._T_29\[2\]
*715 rxm\._T_29\[3\]
*716 rxm\._T_29\[4\]
*717 rxm\._T_29\[5\]
*718 rxm\._T_29\[6\]
*719 rxm\._T_49\[0\]
*720 rxm\._T_49\[1\]
*721 rxm\._T_49\[2\]
*722 rxm\._T_49\[3\]
*723 rxm\._T_49\[4\]
*724 rxm\._T_49\[5\]
*725 rxm\._T_49\[6\]
*726 rxm\.data_count\[0\]
*727 rxm\.data_count\[1\]
*728 rxm\.data_count\[2\]
*729 rxm\.data_count\[3\]
*730 rxm\.io_div\[0\]
*731 rxm\.io_out_bits\[0\]
*732 rxm\.io_out_valid
*733 rxm\.prescaler\[0\]
*734 rxm\.prescaler\[1\]
*735 rxm\.prescaler\[2\]
*736 rxm\.prescaler\[3\]
*737 rxm\.prescaler\[4\]
*738 rxm\.prescaler\[5\]
*739 rxm\.prescaler\[6\]
*740 rxm\.prescaler\[7\]
*741 rxm\.prescaler\[8\]
*742 rxm\.prescaler\[9\]
*743 rxm\.state
*744 txm\._T_37\[1\]
*745 txm\._T_37\[2\]
*746 txm\._T_37\[3\]
*747 txm\._T_37\[4\]
*748 txm\._T_37\[5\]
*749 txm\._T_37\[6\]
*750 txm\._T_37\[7\]
*751 txm\._T_37\[8\]
*752 txm\._T_66\[0\]
*753 txm\._T_66\[1\]
*754 txm\._T_66\[2\]
*755 txm\._T_66\[3\]
*756 txm\._T_66\[4\]
*757 txm\._T_66\[5\]
*758 txm\._T_66\[6\]
*759 txm\._T_66\[7\]
*760 txm\._T_68
*761 txm\.counter\[0\]
*762 txm\.counter\[1\]
*763 txm\.counter\[2\]
*764 txm\.counter\[3\]
*765 txm\.io_in_valid
*766 txm\.prescaler\[0\]
*767 txm\.prescaler\[1\]
*768 txm\.prescaler\[2\]
*769 txm\.prescaler\[3\]
*770 txm\.prescaler\[4\]
*771 txm\.prescaler\[5\]
*772 txm\.prescaler\[6\]
*773 txm\.prescaler\[7\]
*774 txm\.prescaler\[8\]
*775 txm\.prescaler\[9\]
*776 ANTENNA__0584__A
*777 ANTENNA__0591__C
*778 ANTENNA__0592__A_N
*779 ANTENNA__0592__B
*780 ANTENNA__0592__C
*781 ANTENNA__0593__A
*782 ANTENNA__0593__B
*783 ANTENNA__0598__A0
*784 ANTENNA__0602__A0
*785 ANTENNA__0605__A0
*786 ANTENNA__0608__A0
*787 ANTENNA__0613__A0
*788 ANTENNA__0616__A0
*789 ANTENNA__0619__A0
*790 ANTENNA__0622__A0
*791 ANTENNA__0653__A
*792 ANTENNA__0655__A
*793 ANTENNA__0655__B
*794 ANTENNA__0660__A
*795 ANTENNA__0660__B
*796 ANTENNA__0665__A1
*797 ANTENNA__0667__A1
*798 ANTENNA__0669__A1
*799 ANTENNA__0671__A1
*800 ANTENNA__0675__A1
*801 ANTENNA__0677__A1
*802 ANTENNA__0679__A1
*803 ANTENNA__0681__A1
*804 ANTENNA__0685__A
*805 ANTENNA__0685__B
*806 ANTENNA__0685__C_N
*807 ANTENNA__0689__A0
*808 ANTENNA__0692__A0
*809 ANTENNA__0695__A0
*810 ANTENNA__0698__A0
*811 ANTENNA__0702__A0
*812 ANTENNA__0705__A0
*813 ANTENNA__0709__A0
*814 ANTENNA__0713__A0
*815 ANTENNA__0716__A0
*816 ANTENNA__0719__A0
*817 ANTENNA__0723__A0
*818 ANTENNA__0726__A0
*819 ANTENNA__0729__A0
*820 ANTENNA__0732__A0
*821 ANTENNA__0736__A_N
*822 ANTENNA__0736__B
*823 ANTENNA__0736__C
*824 ANTENNA__0739__A0
*825 ANTENNA__0744__A0
*826 ANTENNA__0748__A0
*827 ANTENNA__0751__A0
*828 ANTENNA__0755__A0
*829 ANTENNA__0759__B1
*830 ANTENNA__0760__A1
*831 ANTENNA__0762__A0
*832 ANTENNA__0765__A0
*833 ANTENNA__0768__A
*834 ANTENNA__0780__A
*835 ANTENNA__0829__C1
*836 ANTENNA__0840__C1
*837 ANTENNA__0844__C1
*838 ANTENNA__0848__A
*839 ANTENNA__0850__A_N
*840 ANTENNA__0850__B
*841 ANTENNA__0861__A
*842 ANTENNA__0875__C1
*843 ANTENNA__0896__C1
*844 ANTENNA__0898__B
*845 ANTENNA__0903__C1
*846 ANTENNA__0909__C1
*847 ANTENNA__0923__C1
*848 ANTENNA__0927__C1
*849 ANTENNA__0945__C1
*850 ANTENNA__0951__A
*851 ANTENNA__0954__A
*852 ANTENNA__0957__A
*853 ANTENNA__0960__A
*854 ANTENNA__0971__A0
*855 ANTENNA__0977__C1
*856 ANTENNA__1011__C1
*857 ANTENNA__1039__A0
*858 ANTENNA__1041__C1
*859 ANTENNA__1042__A0
*860 ANTENNA__1119__D
*861 ANTENNA__1125__D
*862 ANTENNA_clkbuf_0_clock_A
*863 ANTENNA_clkbuf_3_0_0_clock_A
*864 ANTENNA_clkbuf_3_1_0_clock_A
*865 ANTENNA_clkbuf_3_2_0_clock_A
*866 ANTENNA_clkbuf_3_3_0_clock_A
*867 ANTENNA_clkbuf_3_4_0_clock_A
*868 ANTENNA_clkbuf_3_5_0_clock_A
*869 ANTENNA_clkbuf_3_6_0_clock_A
*870 ANTENNA_clkbuf_3_7_0_clock_A
*871 ANTENNA_input10_A
*872 ANTENNA_input11_A
*873 ANTENNA_input12_A
*874 ANTENNA_input13_A
*875 ANTENNA_input14_A
*876 ANTENNA_input15_A
*877 ANTENNA_input16_A
*878 ANTENNA_input17_A
*879 ANTENNA_input18_A
*880 ANTENNA_input19_A
*881 ANTENNA_input1_A
*882 ANTENNA_input20_A
*883 ANTENNA_input21_A
*884 ANTENNA_input2_A
*885 ANTENNA_input3_A
*886 ANTENNA_input4_A
*887 ANTENNA_input5_A
*888 ANTENNA_input6_A
*889 ANTENNA_input7_A
*890 ANTENNA_input8_A
*891 ANTENNA_input9_A
*892 FILLER_0_104
*893 FILLER_0_113
*894 FILLER_0_125
*895 FILLER_0_137
*896 FILLER_0_141
*897 FILLER_0_15
*898 FILLER_0_153
*899 FILLER_0_161
*900 FILLER_0_165
*901 FILLER_0_169
*902 FILLER_0_181
*903 FILLER_0_188
*904 FILLER_0_192
*905 FILLER_0_197
*906 FILLER_0_209
*907 FILLER_0_21
*908 FILLER_0_217
*909 FILLER_0_223
*910 FILLER_0_225
*911 FILLER_0_237
*912 FILLER_0_249
*913 FILLER_0_25
*914 FILLER_0_253
*915 FILLER_0_258
*916 FILLER_0_262
*917 FILLER_0_268
*918 FILLER_0_272
*919 FILLER_0_281
*920 FILLER_0_286
*921 FILLER_0_29
*922 FILLER_0_297
*923 FILLER_0_43
*924 FILLER_0_51
*925 FILLER_0_55
*926 FILLER_0_57
*927 FILLER_0_62
*928 FILLER_0_7
*929 FILLER_0_70
*930 FILLER_0_76
*931 FILLER_0_80
*932 FILLER_0_85
*933 FILLER_0_97
*934 FILLER_10_114
*935 FILLER_10_123
*936 FILLER_10_131
*937 FILLER_10_135
*938 FILLER_10_139
*939 FILLER_10_143
*940 FILLER_10_15
*941 FILLER_10_150
*942 FILLER_10_168
*943 FILLER_10_188
*944 FILLER_10_194
*945 FILLER_10_197
*946 FILLER_10_207
*947 FILLER_10_225
*948 FILLER_10_233
*949 FILLER_10_250
*950 FILLER_10_253
*951 FILLER_10_27
*952 FILLER_10_272
*953 FILLER_10_277
*954 FILLER_10_289
*955 FILLER_10_29
*956 FILLER_10_297
*957 FILLER_10_3
*958 FILLER_10_41
*959 FILLER_10_53
*960 FILLER_10_65
*961 FILLER_10_77
*962 FILLER_10_83
*963 FILLER_10_85
*964 FILLER_10_96
*965 FILLER_11_110
*966 FILLER_11_113
*967 FILLER_11_130
*968 FILLER_11_141
*969 FILLER_11_151
*970 FILLER_11_157
*971 FILLER_11_166
*972 FILLER_11_169
*973 FILLER_11_180
*974 FILLER_11_19
*975 FILLER_11_191
*976 FILLER_11_197
*977 FILLER_11_208
*978 FILLER_11_213
*979 FILLER_11_217
*980 FILLER_11_223
*981 FILLER_11_228
*982 FILLER_11_234
*983 FILLER_11_239
*984 FILLER_11_245
*985 FILLER_11_250
*986 FILLER_11_261
*987 FILLER_11_267
*988 FILLER_11_279
*989 FILLER_11_281
*990 FILLER_11_289
*991 FILLER_11_292
*992 FILLER_11_297
*993 FILLER_11_31
*994 FILLER_11_43
*995 FILLER_11_55
*996 FILLER_11_57
*997 FILLER_11_69
*998 FILLER_11_7
*999 FILLER_11_81
*1000 FILLER_11_89
*1001 FILLER_11_95
*1002 FILLER_11_99
*1003 FILLER_12_101
*1004 FILLER_12_112
*1005 FILLER_12_116
*1006 FILLER_12_120
*1007 FILLER_12_133
*1008 FILLER_12_138
*1009 FILLER_12_148
*1010 FILLER_12_15
*1011 FILLER_12_167
*1012 FILLER_12_174
*1013 FILLER_12_192
*1014 FILLER_12_199
*1015 FILLER_12_210
*1016 FILLER_12_217
*1017 FILLER_12_235
*1018 FILLER_12_250
*1019 FILLER_12_257
*1020 FILLER_12_27
*1021 FILLER_12_272
*1022 FILLER_12_279
*1023 FILLER_12_29
*1024 FILLER_12_291
*1025 FILLER_12_3
*1026 FILLER_12_41
*1027 FILLER_12_53
*1028 FILLER_12_65
*1029 FILLER_12_77
*1030 FILLER_12_82
*1031 FILLER_13_106
*1032 FILLER_13_118
*1033 FILLER_13_122
*1034 FILLER_13_126
*1035 FILLER_13_144
*1036 FILLER_13_148
*1037 FILLER_13_15
*1038 FILLER_13_159
*1039 FILLER_13_166
*1040 FILLER_13_171
*1041 FILLER_13_175
*1042 FILLER_13_179
*1043 FILLER_13_186
*1044 FILLER_13_193
*1045 FILLER_13_204
*1046 FILLER_13_222
*1047 FILLER_13_225
*1048 FILLER_13_237
*1049 FILLER_13_259
*1050 FILLER_13_27
*1051 FILLER_13_277
*1052 FILLER_13_281
*1053 FILLER_13_291
*1054 FILLER_13_297
*1055 FILLER_13_3
*1056 FILLER_13_39
*1057 FILLER_13_51
*1058 FILLER_13_55
*1059 FILLER_13_57
*1060 FILLER_13_69
*1061 FILLER_13_84
*1062 FILLER_13_90
*1063 FILLER_13_95
*1064 FILLER_14_105
*1065 FILLER_14_125
*1066 FILLER_14_13
*1067 FILLER_14_136
*1068 FILLER_14_141
*1069 FILLER_14_150
*1070 FILLER_14_158
*1071 FILLER_14_178
*1072 FILLER_14_189
*1073 FILLER_14_194
*1074 FILLER_14_199
*1075 FILLER_14_210
*1076 FILLER_14_215
*1077 FILLER_14_220
*1078 FILLER_14_224
*1079 FILLER_14_237
*1080 FILLER_14_243
*1081 FILLER_14_249
*1082 FILLER_14_25
*1083 FILLER_14_253
*1084 FILLER_14_259
*1085 FILLER_14_266
*1086 FILLER_14_277
*1087 FILLER_14_29
*1088 FILLER_14_295
*1089 FILLER_14_3
*1090 FILLER_14_41
*1091 FILLER_14_53
*1092 FILLER_14_65
*1093 FILLER_14_81
*1094 FILLER_14_85
*1095 FILLER_14_9
*1096 FILLER_15_102
*1097 FILLER_15_106
*1098 FILLER_15_110
*1099 FILLER_15_116
*1100 FILLER_15_122
*1101 FILLER_15_127
*1102 FILLER_15_134
*1103 FILLER_15_145
*1104 FILLER_15_149
*1105 FILLER_15_15
*1106 FILLER_15_152
*1107 FILLER_15_163
*1108 FILLER_15_167
*1109 FILLER_15_172
*1110 FILLER_15_181
*1111 FILLER_15_199
*1112 FILLER_15_203
*1113 FILLER_15_221
*1114 FILLER_15_225
*1115 FILLER_15_242
*1116 FILLER_15_248
*1117 FILLER_15_265
*1118 FILLER_15_269
*1119 FILLER_15_27
*1120 FILLER_15_275
*1121 FILLER_15_279
*1122 FILLER_15_281
*1123 FILLER_15_287
*1124 FILLER_15_292
*1125 FILLER_15_298
*1126 FILLER_15_3
*1127 FILLER_15_39
*1128 FILLER_15_51
*1129 FILLER_15_55
*1130 FILLER_15_57
*1131 FILLER_15_69
*1132 FILLER_15_89
*1133 FILLER_15_97
*1134 FILLER_16_111
*1135 FILLER_16_123
*1136 FILLER_16_131
*1137 FILLER_16_136
*1138 FILLER_16_141
*1139 FILLER_16_150
*1140 FILLER_16_162
*1141 FILLER_16_166
*1142 FILLER_16_170
*1143 FILLER_16_174
*1144 FILLER_16_18
*1145 FILLER_16_180
*1146 FILLER_16_184
*1147 FILLER_16_191
*1148 FILLER_16_195
*1149 FILLER_16_199
*1150 FILLER_16_207
*1151 FILLER_16_211
*1152 FILLER_16_228
*1153 FILLER_16_232
*1154 FILLER_16_237
*1155 FILLER_16_246
*1156 FILLER_16_250
*1157 FILLER_16_253
*1158 FILLER_16_259
*1159 FILLER_16_26
*1160 FILLER_16_265
*1161 FILLER_16_269
*1162 FILLER_16_286
*1163 FILLER_16_29
*1164 FILLER_16_297
*1165 FILLER_16_41
*1166 FILLER_16_53
*1167 FILLER_16_6
*1168 FILLER_16_72
*1169 FILLER_16_80
*1170 FILLER_16_87
*1171 FILLER_16_92
*1172 FILLER_16_99
*1173 FILLER_17_110
*1174 FILLER_17_115
*1175 FILLER_17_133
*1176 FILLER_17_141
*1177 FILLER_17_15
*1178 FILLER_17_159
*1179 FILLER_17_166
*1180 FILLER_17_175
*1181 FILLER_17_187
*1182 FILLER_17_194
*1183 FILLER_17_200
*1184 FILLER_17_206
*1185 FILLER_17_210
*1186 FILLER_17_217
*1187 FILLER_17_222
*1188 FILLER_17_229
*1189 FILLER_17_239
*1190 FILLER_17_243
*1191 FILLER_17_249
*1192 FILLER_17_256
*1193 FILLER_17_262
*1194 FILLER_17_27
*1195 FILLER_17_270
*1196 FILLER_17_278
*1197 FILLER_17_281
*1198 FILLER_17_293
*1199 FILLER_17_3
*1200 FILLER_17_39
*1201 FILLER_17_51
*1202 FILLER_17_54
*1203 FILLER_17_57
*1204 FILLER_17_63
*1205 FILLER_17_68
*1206 FILLER_17_75
*1207 FILLER_17_86
*1208 FILLER_17_92
*1209 FILLER_18_100
*1210 FILLER_18_104
*1211 FILLER_18_110
*1212 FILLER_18_114
*1213 FILLER_18_121
*1214 FILLER_18_132
*1215 FILLER_18_138
*1216 FILLER_18_146
*1217 FILLER_18_15
*1218 FILLER_18_157
*1219 FILLER_18_161
*1220 FILLER_18_170
*1221 FILLER_18_182
*1222 FILLER_18_190
*1223 FILLER_18_194
*1224 FILLER_18_213
*1225 FILLER_18_220
*1226 FILLER_18_230
*1227 FILLER_18_240
*1228 FILLER_18_245
*1229 FILLER_18_249
*1230 FILLER_18_257
*1231 FILLER_18_263
*1232 FILLER_18_27
*1233 FILLER_18_271
*1234 FILLER_18_275
*1235 FILLER_18_281
*1236 FILLER_18_285
*1237 FILLER_18_29
*1238 FILLER_18_293
*1239 FILLER_18_297
*1240 FILLER_18_3
*1241 FILLER_18_41
*1242 FILLER_18_60
*1243 FILLER_18_71
*1244 FILLER_18_79
*1245 FILLER_18_83
*1246 FILLER_18_94
*1247 FILLER_19_105
*1248 FILLER_19_110
*1249 FILLER_19_119
*1250 FILLER_19_130
*1251 FILLER_19_134
*1252 FILLER_19_144
*1253 FILLER_19_15
*1254 FILLER_19_154
*1255 FILLER_19_161
*1256 FILLER_19_166
*1257 FILLER_19_179
*1258 FILLER_19_187
*1259 FILLER_19_192
*1260 FILLER_19_199
*1261 FILLER_19_205
*1262 FILLER_19_213
*1263 FILLER_19_218
*1264 FILLER_19_222
*1265 FILLER_19_228
*1266 FILLER_19_235
*1267 FILLER_19_247
*1268 FILLER_19_267
*1269 FILLER_19_27
*1270 FILLER_19_271
*1271 FILLER_19_279
*1272 FILLER_19_297
*1273 FILLER_19_3
*1274 FILLER_19_39
*1275 FILLER_19_45
*1276 FILLER_19_52
*1277 FILLER_19_66
*1278 FILLER_19_70
*1279 FILLER_19_89
*1280 FILLER_19_94
*1281 FILLER_1_105
*1282 FILLER_1_111
*1283 FILLER_1_113
*1284 FILLER_1_125
*1285 FILLER_1_137
*1286 FILLER_1_149
*1287 FILLER_1_161
*1288 FILLER_1_167
*1289 FILLER_1_169
*1290 FILLER_1_177
*1291 FILLER_1_184
*1292 FILLER_1_19
*1293 FILLER_1_196
*1294 FILLER_1_208
*1295 FILLER_1_220
*1296 FILLER_1_225
*1297 FILLER_1_237
*1298 FILLER_1_249
*1299 FILLER_1_261
*1300 FILLER_1_273
*1301 FILLER_1_279
*1302 FILLER_1_281
*1303 FILLER_1_293
*1304 FILLER_1_297
*1305 FILLER_1_31
*1306 FILLER_1_43
*1307 FILLER_1_55
*1308 FILLER_1_57
*1309 FILLER_1_69
*1310 FILLER_1_7
*1311 FILLER_1_81
*1312 FILLER_1_93
*1313 FILLER_20_109
*1314 FILLER_20_127
*1315 FILLER_20_138
*1316 FILLER_20_15
*1317 FILLER_20_151
*1318 FILLER_20_155
*1319 FILLER_20_166
*1320 FILLER_20_170
*1321 FILLER_20_177
*1322 FILLER_20_185
*1323 FILLER_20_189
*1324 FILLER_20_193
*1325 FILLER_20_207
*1326 FILLER_20_225
*1327 FILLER_20_232
*1328 FILLER_20_244
*1329 FILLER_20_250
*1330 FILLER_20_258
*1331 FILLER_20_264
*1332 FILLER_20_269
*1333 FILLER_20_27
*1334 FILLER_20_276
*1335 FILLER_20_280
*1336 FILLER_20_29
*1337 FILLER_20_297
*1338 FILLER_20_3
*1339 FILLER_20_41
*1340 FILLER_20_61
*1341 FILLER_20_69
*1342 FILLER_20_80
*1343 FILLER_20_85
*1344 FILLER_20_91
*1345 FILLER_21_104
*1346 FILLER_21_110
*1347 FILLER_21_115
*1348 FILLER_21_127
*1349 FILLER_21_137
*1350 FILLER_21_149
*1351 FILLER_21_15
*1352 FILLER_21_153
*1353 FILLER_21_164
*1354 FILLER_21_169
*1355 FILLER_21_178
*1356 FILLER_21_183
*1357 FILLER_21_189
*1358 FILLER_21_207
*1359 FILLER_21_217
*1360 FILLER_21_222
*1361 FILLER_21_231
*1362 FILLER_21_238
*1363 FILLER_21_242
*1364 FILLER_21_249
*1365 FILLER_21_255
*1366 FILLER_21_263
*1367 FILLER_21_269
*1368 FILLER_21_27
*1369 FILLER_21_277
*1370 FILLER_21_284
*1371 FILLER_21_288
*1372 FILLER_21_292
*1373 FILLER_21_297
*1374 FILLER_21_3
*1375 FILLER_21_39
*1376 FILLER_21_46
*1377 FILLER_21_53
*1378 FILLER_21_66
*1379 FILLER_21_86
*1380 FILLER_21_97
*1381 FILLER_22_115
*1382 FILLER_22_119
*1383 FILLER_22_130
*1384 FILLER_22_136
*1385 FILLER_22_15
*1386 FILLER_22_151
*1387 FILLER_22_157
*1388 FILLER_22_169
*1389 FILLER_22_177
*1390 FILLER_22_181
*1391 FILLER_22_187
*1392 FILLER_22_192
*1393 FILLER_22_203
*1394 FILLER_22_211
*1395 FILLER_22_215
*1396 FILLER_22_219
*1397 FILLER_22_230
*1398 FILLER_22_237
*1399 FILLER_22_246
*1400 FILLER_22_250
*1401 FILLER_22_253
*1402 FILLER_22_259
*1403 FILLER_22_267
*1404 FILLER_22_27
*1405 FILLER_22_275
*1406 FILLER_22_287
*1407 FILLER_22_29
*1408 FILLER_22_294
*1409 FILLER_22_298
*1410 FILLER_22_3
*1411 FILLER_22_41
*1412 FILLER_22_55
*1413 FILLER_22_67
*1414 FILLER_22_73
*1415 FILLER_22_78
*1416 FILLER_22_85
*1417 FILLER_22_97
*1418 FILLER_23_104
*1419 FILLER_23_110
*1420 FILLER_23_115
*1421 FILLER_23_121
*1422 FILLER_23_131
*1423 FILLER_23_141
*1424 FILLER_23_15
*1425 FILLER_23_151
*1426 FILLER_23_163
*1427 FILLER_23_167
*1428 FILLER_23_171
*1429 FILLER_23_182
*1430 FILLER_23_186
*1431 FILLER_23_204
*1432 FILLER_23_211
*1433 FILLER_23_215
*1434 FILLER_23_222
*1435 FILLER_23_230
*1436 FILLER_23_235
*1437 FILLER_23_254
*1438 FILLER_23_261
*1439 FILLER_23_27
*1440 FILLER_23_273
*1441 FILLER_23_279
*1442 FILLER_23_297
*1443 FILLER_23_3
*1444 FILLER_23_39
*1445 FILLER_23_43
*1446 FILLER_23_46
*1447 FILLER_23_53
*1448 FILLER_23_66
*1449 FILLER_23_79
*1450 FILLER_23_87
*1451 FILLER_23_93
*1452 FILLER_23_99
*1453 FILLER_24_109
*1454 FILLER_24_116
*1455 FILLER_24_126
*1456 FILLER_24_138
*1457 FILLER_24_141
*1458 FILLER_24_15
*1459 FILLER_24_152
*1460 FILLER_24_163
*1461 FILLER_24_172
*1462 FILLER_24_177
*1463 FILLER_24_188
*1464 FILLER_24_193
*1465 FILLER_24_201
*1466 FILLER_24_221
*1467 FILLER_24_230
*1468 FILLER_24_242
*1469 FILLER_24_250
*1470 FILLER_24_260
*1471 FILLER_24_264
*1472 FILLER_24_27
*1473 FILLER_24_270
*1474 FILLER_24_281
*1475 FILLER_24_287
*1476 FILLER_24_29
*1477 FILLER_24_297
*1478 FILLER_24_3
*1479 FILLER_24_41
*1480 FILLER_24_60
*1481 FILLER_24_82
*1482 FILLER_24_88
*1483 FILLER_24_92
*1484 FILLER_25_100
*1485 FILLER_25_106
*1486 FILLER_25_110
*1487 FILLER_25_129
*1488 FILLER_25_137
*1489 FILLER_25_151
*1490 FILLER_25_163
*1491 FILLER_25_167
*1492 FILLER_25_178
*1493 FILLER_25_18
*1494 FILLER_25_185
*1495 FILLER_25_191
*1496 FILLER_25_196
*1497 FILLER_25_204
*1498 FILLER_25_208
*1499 FILLER_25_216
*1500 FILLER_25_222
*1501 FILLER_25_241
*1502 FILLER_25_247
*1503 FILLER_25_265
*1504 FILLER_25_274
*1505 FILLER_25_297
*1506 FILLER_25_30
*1507 FILLER_25_42
*1508 FILLER_25_46
*1509 FILLER_25_50
*1510 FILLER_25_57
*1511 FILLER_25_6
*1512 FILLER_25_65
*1513 FILLER_25_73
*1514 FILLER_25_80
*1515 FILLER_25_89
*1516 FILLER_26_112
*1517 FILLER_26_122
*1518 FILLER_26_128
*1519 FILLER_26_136
*1520 FILLER_26_149
*1521 FILLER_26_171
*1522 FILLER_26_176
*1523 FILLER_26_19
*1524 FILLER_26_194
*1525 FILLER_26_201
*1526 FILLER_26_210
*1527 FILLER_26_222
*1528 FILLER_26_228
*1529 FILLER_26_240
*1530 FILLER_26_256
*1531 FILLER_26_265
*1532 FILLER_26_269
*1533 FILLER_26_27
*1534 FILLER_26_276
*1535 FILLER_26_29
*1536 FILLER_26_296
*1537 FILLER_26_41
*1538 FILLER_26_49
*1539 FILLER_26_66
*1540 FILLER_26_72
*1541 FILLER_26_82
*1542 FILLER_26_88
*1543 FILLER_27_103
*1544 FILLER_27_110
*1545 FILLER_27_121
*1546 FILLER_27_126
*1547 FILLER_27_134
*1548 FILLER_27_141
*1549 FILLER_27_148
*1550 FILLER_27_15
*1551 FILLER_27_158
*1552 FILLER_27_166
*1553 FILLER_27_178
*1554 FILLER_27_185
*1555 FILLER_27_189
*1556 FILLER_27_193
*1557 FILLER_27_201
*1558 FILLER_27_205
*1559 FILLER_27_211
*1560 FILLER_27_216
*1561 FILLER_27_225
*1562 FILLER_27_235
*1563 FILLER_27_244
*1564 FILLER_27_252
*1565 FILLER_27_261
*1566 FILLER_27_267
*1567 FILLER_27_27
*1568 FILLER_27_278
*1569 FILLER_27_287
*1570 FILLER_27_291
*1571 FILLER_27_297
*1572 FILLER_27_3
*1573 FILLER_27_39
*1574 FILLER_27_54
*1575 FILLER_27_62
*1576 FILLER_27_73
*1577 FILLER_27_95
*1578 FILLER_28_101
*1579 FILLER_28_107
*1580 FILLER_28_119
*1581 FILLER_28_131
*1582 FILLER_28_138
*1583 FILLER_28_149
*1584 FILLER_28_158
*1585 FILLER_28_166
*1586 FILLER_28_172
*1587 FILLER_28_18
*1588 FILLER_28_190
*1589 FILLER_28_194
*1590 FILLER_28_207
*1591 FILLER_28_216
*1592 FILLER_28_225
*1593 FILLER_28_230
*1594 FILLER_28_241
*1595 FILLER_28_249
*1596 FILLER_28_26
*1597 FILLER_28_260
*1598 FILLER_28_266
*1599 FILLER_28_272
*1600 FILLER_28_277
*1601 FILLER_28_29
*1602 FILLER_28_297
*1603 FILLER_28_41
*1604 FILLER_28_53
*1605 FILLER_28_6
*1606 FILLER_28_61
*1607 FILLER_28_68
*1608 FILLER_28_76
*1609 FILLER_28_82
*1610 FILLER_29_110
*1611 FILLER_29_121
*1612 FILLER_29_131
*1613 FILLER_29_139
*1614 FILLER_29_149
*1615 FILLER_29_159
*1616 FILLER_29_166
*1617 FILLER_29_173
*1618 FILLER_29_184
*1619 FILLER_29_188
*1620 FILLER_29_19
*1621 FILLER_29_192
*1622 FILLER_29_196
*1623 FILLER_29_204
*1624 FILLER_29_214
*1625 FILLER_29_220
*1626 FILLER_29_238
*1627 FILLER_29_244
*1628 FILLER_29_258
*1629 FILLER_29_277
*1630 FILLER_29_284
*1631 FILLER_29_292
*1632 FILLER_29_297
*1633 FILLER_29_31
*1634 FILLER_29_43
*1635 FILLER_29_55
*1636 FILLER_29_57
*1637 FILLER_29_76
*1638 FILLER_29_87
*1639 FILLER_29_92
*1640 FILLER_2_109
*1641 FILLER_2_121
*1642 FILLER_2_133
*1643 FILLER_2_139
*1644 FILLER_2_141
*1645 FILLER_2_15
*1646 FILLER_2_153
*1647 FILLER_2_165
*1648 FILLER_2_177
*1649 FILLER_2_189
*1650 FILLER_2_195
*1651 FILLER_2_197
*1652 FILLER_2_209
*1653 FILLER_2_221
*1654 FILLER_2_233
*1655 FILLER_2_245
*1656 FILLER_2_251
*1657 FILLER_2_253
*1658 FILLER_2_265
*1659 FILLER_2_27
*1660 FILLER_2_277
*1661 FILLER_2_289
*1662 FILLER_2_29
*1663 FILLER_2_297
*1664 FILLER_2_3
*1665 FILLER_2_41
*1666 FILLER_2_53
*1667 FILLER_2_65
*1668 FILLER_2_77
*1669 FILLER_2_83
*1670 FILLER_2_85
*1671 FILLER_2_97
*1672 FILLER_30_101
*1673 FILLER_30_118
*1674 FILLER_30_138
*1675 FILLER_30_141
*1676 FILLER_30_147
*1677 FILLER_30_15
*1678 FILLER_30_154
*1679 FILLER_30_160
*1680 FILLER_30_171
*1681 FILLER_30_176
*1682 FILLER_30_194
*1683 FILLER_30_197
*1684 FILLER_30_203
*1685 FILLER_30_216
*1686 FILLER_30_224
*1687 FILLER_30_232
*1688 FILLER_30_250
*1689 FILLER_30_261
*1690 FILLER_30_27
*1691 FILLER_30_271
*1692 FILLER_30_282
*1693 FILLER_30_288
*1694 FILLER_30_29
*1695 FILLER_30_295
*1696 FILLER_30_3
*1697 FILLER_30_41
*1698 FILLER_30_53
*1699 FILLER_30_61
*1700 FILLER_30_66
*1701 FILLER_30_72
*1702 FILLER_30_85
*1703 FILLER_30_97
*1704 FILLER_31_102
*1705 FILLER_31_106
*1706 FILLER_31_118
*1707 FILLER_31_122