*SPEF "ieee 1481-1999"
*DESIGN "user_project_wrapper"
*DATE "11:11:11 Fri 11 11, 1111"
*VENDOR "OpenRCX"
*PROGRAM "Parallel Extraction"
*VERSION "1.0"
*DESIGN_FLOW "NAME_SCOPE LOCAL" "PIN_CAP NONE"
*DIVIDER /
*DELIMITER :
*BUS_DELIMITER []
*T_UNIT 1 NS
*C_UNIT 1 PF
*R_UNIT 1 OHM
*L_UNIT 1 HENRY

*NAME_MAP
*1 analog_io[0]
*2 analog_io[10]
*3 analog_io[11]
*4 analog_io[12]
*5 analog_io[13]
*6 analog_io[14]
*7 analog_io[15]
*8 analog_io[16]
*9 analog_io[17]
*10 analog_io[18]
*11 analog_io[19]
*12 analog_io[1]
*13 analog_io[20]
*14 analog_io[21]
*15 analog_io[22]
*16 analog_io[23]
*17 analog_io[24]
*18 analog_io[25]
*19 analog_io[26]
*20 analog_io[27]
*21 analog_io[28]
*22 analog_io[2]
*23 analog_io[3]
*24 analog_io[4]
*25 analog_io[5]
*26 analog_io[6]
*27 analog_io[7]
*28 analog_io[8]
*29 analog_io[9]
*30 io_in[0]
*31 io_in[10]
*32 io_in[11]
*33 io_in[12]
*34 io_in[13]
*35 io_in[14]
*36 io_in[15]
*37 io_in[16]
*38 io_in[17]
*39 io_in[18]
*40 io_in[19]
*41 io_in[1]
*42 io_in[20]
*43 io_in[21]
*44 io_in[22]
*45 io_in[23]
*46 io_in[24]
*47 io_in[25]
*48 io_in[26]
*49 io_in[27]
*50 io_in[28]
*51 io_in[29]
*52 io_in[2]
*53 io_in[30]
*54 io_in[31]
*55 io_in[32]
*56 io_in[33]
*57 io_in[34]
*58 io_in[35]
*59 io_in[36]
*60 io_in[37]
*61 io_in[3]
*62 io_in[4]
*63 io_in[5]
*64 io_in[6]
*65 io_in[7]
*66 io_in[8]
*67 io_in[9]
*68 io_oeb[0]
*69 io_oeb[10]
*70 io_oeb[11]
*71 io_oeb[12]
*72 io_oeb[13]
*73 io_oeb[14]
*74 io_oeb[15]
*75 io_oeb[16]
*76 io_oeb[17]
*77 io_oeb[18]
*78 io_oeb[19]
*79 io_oeb[1]
*80 io_oeb[20]
*81 io_oeb[21]
*82 io_oeb[22]
*83 io_oeb[23]
*84 io_oeb[24]
*85 io_oeb[25]
*86 io_oeb[26]
*87 io_oeb[27]
*88 io_oeb[28]
*89 io_oeb[29]
*90 io_oeb[2]
*91 io_oeb[30]
*92 io_oeb[31]
*93 io_oeb[32]
*94 io_oeb[33]
*95 io_oeb[34]
*96 io_oeb[35]
*97 io_oeb[36]
*98 io_oeb[37]
*99 io_oeb[3]
*100 io_oeb[4]
*101 io_oeb[5]
*102 io_oeb[6]
*103 io_oeb[7]
*104 io_oeb[8]
*105 io_oeb[9]
*106 io_uart_tx
*107 io_out[10]
*108 io_out[11]
*109 io_out[12]
*110 io_out[13]
*111 io_out[14]
*112 io_out[15]
*113 io_out[16]
*114 io_out[17]
*115 io_out[18]
*116 io_out[19]
*117 io_spi_cs
*118 io_out[20]
*119 io_out[21]
*120 io_out[22]
*121 io_out[23]
*122 io_out[24]
*123 io_out[25]
*124 io_out[26]
*125 io_out[27]
*126 io_out[28]
*127 io_out[29]
*128 io_spi_clk
*129 io_out[30]
*130 io_out[31]
*131 io_out[32]
*132 io_out[33]
*133 io_out[34]
*134 io_out[35]
*135 io_out[36]
*136 io_out[37]
*137 io_spi_mosi
*138 io_pwm_high
*139 io_pwm_low
*140 io_out[6]
*141 io_out[7]
*142 io_out[8]
*143 io_out[9]
*144 la_data_in[0]
*145 la_data_in[100]
*146 la_data_in[101]
*147 la_data_in[102]
*148 la_data_in[103]
*149 la_data_in[104]
*150 la_data_in[105]
*151 la_data_in[106]
*152 la_data_in[107]
*153 la_data_in[108]
*154 la_data_in[109]
*155 la_data_in[10]
*156 la_data_in[110]
*157 la_data_in[111]
*158 la_data_in[112]
*159 la_data_in[113]
*160 la_data_in[114]
*161 la_data_in[115]
*162 la_data_in[116]
*163 la_data_in[117]
*164 la_data_in[118]
*165 la_data_in[119]
*166 la_data_in[11]
*167 la_data_in[120]
*168 la_data_in[121]
*169 la_data_in[122]
*170 la_data_in[123]
*171 la_data_in[124]
*172 la_data_in[125]
*173 la_data_in[126]
*174 la_data_in[127]
*175 la_data_in[12]
*176 la_data_in[13]
*177 la_data_in[14]
*178 la_data_in[15]
*179 la_data_in[16]
*180 la_data_in[17]
*181 la_data_in[18]
*182 la_data_in[19]
*183 la_data_in[1]
*184 la_data_in[20]
*185 la_data_in[21]
*186 la_data_in[22]
*187 la_data_in[23]
*188 la_data_in[24]
*189 la_data_in[25]
*190 la_data_in[26]
*191 la_data_in[27]
*192 la_data_in[28]
*193 la_data_in[29]
*194 la_data_in[2]
*195 la_data_in[30]
*196 la_data_in[31]
*197 la_data_in[32]
*198 la_data_in[33]
*199 la_data_in[34]
*200 la_data_in[35]
*201 la_data_in[36]
*202 la_data_in[37]
*203 la_data_in[38]
*204 la_data_in[39]
*205 la_data_in[3]
*206 la_data_in[40]
*207 la_data_in[41]
*208 la_data_in[42]
*209 la_data_in[43]
*210 la_data_in[44]
*211 la_data_in[45]
*212 la_data_in[46]
*213 la_data_in[47]
*214 la_data_in[48]
*215 la_data_in[49]
*216 la_data_in[4]
*217 la_data_in[50]
*218 la_data_in[51]
*219 la_data_in[52]
*220 la_data_in[53]
*221 la_data_in[54]
*222 la_data_in[55]
*223 la_data_in[56]
*224 la_data_in[57]
*225 la_data_in[58]
*226 la_data_in[59]
*227 la_data_in[5]
*228 la_data_in[60]
*229 la_data_in[61]
*230 la_data_in[62]
*231 la_data_in[63]
*232 la_data_in[64]
*233 la_data_in[65]
*234 la_data_in[66]
*235 la_data_in[67]
*236 la_data_in[68]
*237 la_data_in[69]
*238 la_data_in[6]
*239 la_data_in[70]
*240 la_data_in[71]
*241 la_data_in[72]
*242 la_data_in[73]
*243 la_data_in[74]
*244 la_data_in[75]
*245 la_data_in[76]
*246 la_data_in[77]
*247 la_data_in[78]
*248 la_data_in[79]
*249 la_data_in[7]
*250 la_data_in[80]
*251 la_data_in[81]
*252 la_data_in[82]
*253 la_data_in[83]
*254 la_data_in[84]
*255 la_data_in[85]
*256 la_data_in[86]
*257 la_data_in[87]
*258 la_data_in[88]
*259 la_data_in[89]
*260 la_data_in[8]
*261 la_data_in[90]
*262 la_data_in[91]
*263 la_data_in[92]
*264 la_data_in[93]
*265 la_data_in[94]
*266 la_data_in[95]
*267 la_data_in[96]
*268 la_data_in[97]
*269 la_data_in[98]
*270 la_data_in[99]
*271 la_data_in[9]
*272 la_data_out[0]
*273 la_data_out[100]
*274 la_data_out[101]
*275 la_data_out[102]
*276 la_data_out[103]
*277 la_data_out[104]
*278 la_data_out[105]
*279 la_data_out[106]
*280 la_data_out[107]
*281 la_data_out[108]
*282 la_data_out[109]
*283 la_data_out[10]
*284 la_data_out[110]
*285 la_data_out[111]
*286 la_data_out[112]
*287 la_data_out[113]
*288 la_data_out[114]
*289 la_data_out[115]
*290 la_data_out[116]
*291 la_data_out[117]
*292 la_data_out[118]
*293 la_data_out[119]
*294 la_data_out[11]
*295 la_data_out[120]
*296 la_data_out[121]
*297 la_data_out[122]
*298 la_data_out[123]
*299 la_data_out[124]
*300 la_data_out[125]
*301 la_data_out[126]
*302 la_data_out[127]
*303 la_data_out[12]
*304 la_data_out[13]
*305 la_data_out[14]
*306 la_data_out[15]
*307 la_data_out[16]
*308 la_data_out[17]
*309 la_data_out[18]
*310 la_data_out[19]
*311 la_data_out[1]
*312 la_data_out[20]
*313 la_data_out[21]
*314 la_data_out[22]
*315 la_data_out[23]
*316 la_data_out[24]
*317 la_data_out[25]
*318 la_data_out[26]
*319 la_data_out[27]
*320 la_data_out[28]
*321 la_data_out[29]
*322 la_data_out[2]
*323 la_data_out[30]
*324 la_data_out[31]
*325 la_data_out[32]
*326 la_data_out[33]
*327 la_data_out[34]
*328 la_data_out[35]
*329 la_data_out[36]
*330 la_data_out[37]
*331 la_data_out[38]
*332 la_data_out[39]
*333 la_data_out[3]
*334 la_data_out[40]
*335 la_data_out[41]
*336 la_data_out[42]
*337 la_data_out[43]
*338 la_data_out[44]
*339 la_data_out[45]
*340 la_data_out[46]
*341 la_data_out[47]
*342 la_data_out[48]
*343 la_data_out[49]
*344 la_data_out[4]
*345 la_data_out[50]
*346 la_data_out[51]
*347 la_data_out[52]
*348 la_data_out[53]
*349 la_data_out[54]
*350 la_data_out[55]
*351 la_data_out[56]
*352 la_data_out[57]
*353 la_data_out[58]
*354 la_data_out[59]
*355 la_data_out[5]
*356 la_data_out[60]
*357 la_data_out[61]
*358 la_data_out[62]
*359 la_data_out[63]
*360 la_data_out[64]
*361 la_data_out[65]
*362 la_data_out[66]
*363 la_data_out[67]
*364 la_data_out[68]
*365 la_data_out[69]
*366 la_data_out[6]
*367 la_data_out[70]
*368 la_data_out[71]
*369 la_data_out[72]
*370 la_data_out[73]
*371 la_data_out[74]
*372 la_data_out[75]
*373 la_data_out[76]
*374 la_data_out[77]
*375 la_data_out[78]
*376 la_data_out[79]
*377 la_data_out[7]
*378 la_data_out[80]
*379 la_data_out[81]
*380 la_data_out[82]
*381 la_data_out[83]
*382 la_data_out[84]
*383 la_data_out[85]
*384 la_data_out[86]
*385 la_data_out[87]
*386 la_data_out[88]
*387 la_data_out[89]
*388 la_data_out[8]
*389 la_data_out[90]
*390 la_data_out[91]
*391 la_data_out[92]
*392 la_data_out[93]
*393 la_data_out[94]
*394 la_data_out[95]
*395 la_data_out[96]
*396 la_data_out[97]
*397 la_data_out[98]
*398 la_data_out[99]
*399 la_data_out[9]
*400 la_oenb[0]
*401 la_oenb[100]
*402 la_oenb[101]
*403 la_oenb[102]
*404 la_oenb[103]
*405 la_oenb[104]
*406 la_oenb[105]
*407 la_oenb[106]
*408 la_oenb[107]
*409 la_oenb[108]
*410 la_oenb[109]
*411 la_oenb[10]
*412 la_oenb[110]
*413 la_oenb[111]
*414 la_oenb[112]
*415 la_oenb[113]
*416 la_oenb[114]
*417 la_oenb[115]
*418 la_oenb[116]
*419 la_oenb[117]
*420 la_oenb[118]
*421 la_oenb[119]
*422 la_oenb[11]
*423 la_oenb[120]
*424 la_oenb[121]
*425 la_oenb[122]
*426 la_oenb[123]
*427 la_oenb[124]
*428 la_oenb[125]
*429 la_oenb[126]
*430 la_oenb[127]
*431 la_oenb[12]
*432 la_oenb[13]
*433 la_oenb[14]
*434 la_oenb[15]
*435 la_oenb[16]
*436 la_oenb[17]
*437 la_oenb[18]
*438 la_oenb[19]
*439 la_oenb[1]
*440 la_oenb[20]
*441 la_oenb[21]
*442 la_oenb[22]
*443 la_oenb[23]
*444 la_oenb[24]
*445 la_oenb[25]
*446 la_oenb[26]
*447 la_oenb[27]
*448 la_oenb[28]
*449 la_oenb[29]
*450 la_oenb[2]
*451 la_oenb[30]
*452 la_oenb[31]
*453 la_oenb[32]
*454 la_oenb[33]
*455 la_oenb[34]
*456 la_oenb[35]
*457 la_oenb[36]
*458 la_oenb[37]
*459 la_oenb[38]
*460 la_oenb[39]
*461 la_oenb[3]
*462 la_oenb[40]
*463 la_oenb[41]
*464 la_oenb[42]
*465 la_oenb[43]
*466 la_oenb[44]
*467 la_oenb[45]
*468 la_oenb[46]
*469 la_oenb[47]
*470 la_oenb[48]
*471 la_oenb[49]
*472 la_oenb[4]
*473 la_oenb[50]
*474 la_oenb[51]
*475 la_oenb[52]
*476 la_oenb[53]
*477 la_oenb[54]
*478 la_oenb[55]
*479 la_oenb[56]
*480 la_oenb[57]
*481 la_oenb[58]
*482 la_oenb[59]
*483 la_oenb[5]
*484 la_oenb[60]
*485 la_oenb[61]
*486 la_oenb[62]
*487 la_oenb[63]
*488 la_oenb[64]
*489 la_oenb[65]
*490 la_oenb[66]
*491 la_oenb[67]
*492 la_oenb[68]
*493 la_oenb[69]
*494 la_oenb[6]
*495 la_oenb[70]
*496 la_oenb[71]
*497 la_oenb[72]
*498 la_oenb[73]
*499 la_oenb[74]
*500 la_oenb[75]
*501 la_oenb[76]
*502 la_oenb[77]
*503 la_oenb[78]
*504 la_oenb[79]
*505 la_oenb[7]
*506 la_oenb[80]
*507 la_oenb[81]
*508 la_oenb[82]
*509 la_oenb[83]
*510 la_oenb[84]
*511 la_oenb[85]
*512 la_oenb[86]
*513 la_oenb[87]
*514 la_oenb[88]
*515 la_oenb[89]
*516 la_oenb[8]
*517 la_oenb[90]
*518 la_oenb[91]
*519 la_oenb[92]
*520 la_oenb[93]
*521 la_oenb[94]
*522 la_oenb[95]
*523 la_oenb[96]
*524 la_oenb[97]
*525 la_oenb[98]
*526 la_oenb[99]
*527 la_oenb[9]
*528 user_clock2
*529 user_irq[0]
*530 user_irq[1]
*531 user_irq[2]
*540 wb_clk_i
*541 wb_rst_i
*542 wbs_ack_o
*543 wbs_adr_i[0]
*544 wbs_adr_i[10]
*545 wbs_adr_i[11]
*546 wbs_adr_i[12]
*547 wbs_adr_i[13]
*548 wbs_adr_i[14]
*549 wbs_adr_i[15]
*550 wbs_adr_i[16]
*551 wbs_adr_i[17]
*552 wbs_adr_i[18]
*553 wbs_adr_i[19]
*554 wbs_adr_i[1]
*555 wbs_adr_i[20]
*556 wbs_adr_i[21]
*557 wbs_adr_i[22]
*558 wbs_adr_i[23]
*559 wbs_adr_i[24]
*560 wbs_adr_i[25]
*561 wbs_adr_i[26]
*562 wbs_adr_i[27]
*563 wbs_adr_i[28]
*564 wbs_adr_i[29]
*565 wbs_adr_i[2]
*566 wbs_adr_i[30]
*567 wbs_adr_i[31]
*568 wbs_adr_i[3]
*569 wbs_adr_i[4]
*570 wbs_adr_i[5]
*571 wbs_adr_i[6]
*572 wbs_adr_i[7]
*573 wbs_adr_i[8]
*574 wbs_adr_i[9]
*575 wbs_cyc_i
*576 wbs_dat_i[0]
*577 wbs_dat_i[10]
*578 wbs_dat_i[11]
*579 wbs_dat_i[12]
*580 wbs_dat_i[13]
*581 wbs_dat_i[14]
*582 wbs_dat_i[15]
*583 wbs_dat_i[16]
*584 wbs_dat_i[17]
*585 wbs_dat_i[18]
*586 wbs_dat_i[19]
*587 wbs_dat_i[1]
*588 wbs_dat_i[20]
*589 wbs_dat_i[21]
*590 wbs_dat_i[22]
*591 wbs_dat_i[23]
*592 wbs_dat_i[24]
*593 wbs_dat_i[25]
*594 wbs_dat_i[26]
*595 wbs_dat_i[27]
*596 wbs_dat_i[28]
*597 wbs_dat_i[29]
*598 wbs_dat_i[2]
*599 wbs_dat_i[30]
*600 wbs_dat_i[31]
*601 wbs_dat_i[3]
*602 wbs_dat_i[4]
*603 wbs_dat_i[5]
*604 wbs_dat_i[6]
*605 wbs_dat_i[7]
*606 wbs_dat_i[8]
*607 wbs_dat_i[9]
*608 wbs_dat_o[0]
*609 wbs_dat_o[10]
*610 wbs_dat_o[11]
*611 wbs_dat_o[12]
*612 wbs_dat_o[13]
*613 wbs_dat_o[14]
*614 wbs_dat_o[15]
*615 wbs_dat_o[16]
*616 wbs_dat_o[17]
*617 wbs_dat_o[18]
*618 wbs_dat_o[19]
*619 wbs_dat_o[1]
*620 wbs_dat_o[20]
*621 wbs_dat_o[21]
*622 wbs_dat_o[22]
*623 wbs_dat_o[23]
*624 wbs_dat_o[24]
*625 wbs_dat_o[25]
*626 wbs_dat_o[26]
*627 wbs_dat_o[27]
*628 wbs_dat_o[28]
*629 wbs_dat_o[29]
*630 wbs_dat_o[2]
*631 wbs_dat_o[30]
*632 wbs_dat_o[31]
*633 wbs_dat_o[3]
*634 wbs_dat_o[4]
*635 wbs_dat_o[5]
*636 wbs_dat_o[6]
*637 wbs_dat_o[7]
*638 wbs_dat_o[8]
*639 wbs_dat_o[9]
*640 wbs_sel_i[0]
*641 wbs_sel_i[1]
*642 wbs_sel_i[2]
*643 wbs_sel_i[3]
*644 wbs_stb_i
*645 wbs_we_i
*646 core_io_dbus_addr\[0\]
*647 core_io_dbus_addr\[10\]
*648 core_io_dbus_addr\[11\]
*649 core_io_dbus_addr\[12\]
*650 core_io_dbus_addr\[13\]
*651 core_io_dbus_addr\[14\]
*652 core_io_dbus_addr\[15\]
*653 core_io_dbus_addr\[16\]
*654 core_io_dbus_addr\[17\]
*655 core_io_dbus_addr\[18\]
*656 core_io_dbus_addr\[19\]
*657 core_io_dbus_addr\[1\]
*658 core_io_dbus_addr\[20\]
*659 core_io_dbus_addr\[21\]
*660 core_io_dbus_addr\[22\]
*661 core_io_dbus_addr\[23\]
*662 core_io_dbus_addr\[24\]
*663 core_io_dbus_addr\[25\]
*664 core_io_dbus_addr\[26\]
*665 core_io_dbus_addr\[27\]
*666 core_io_dbus_addr\[28\]
*667 core_io_dbus_addr\[29\]
*668 core_io_dbus_addr\[2\]
*669 core_io_dbus_addr\[30\]
*670 core_io_dbus_addr\[31\]
*671 core_io_dbus_addr\[3\]
*672 core_io_dbus_addr\[4\]
*673 core_io_dbus_addr\[5\]
*674 core_io_dbus_addr\[6\]
*675 core_io_dbus_addr\[7\]
*676 core_io_dbus_addr\[8\]
*677 core_io_dbus_addr\[9\]
*678 core_io_dbus_ld_type\[0\]
*679 core_io_dbus_ld_type\[1\]
*680 core_io_dbus_ld_type\[2\]
*681 core_io_dbus_rd_en
*682 core_io_dbus_rdata\[0\]
*683 core_io_dbus_rdata\[10\]
*684 core_io_dbus_rdata\[11\]
*685 core_io_dbus_rdata\[12\]
*686 core_io_dbus_rdata\[13\]
*687 core_io_dbus_rdata\[14\]
*688 core_io_dbus_rdata\[15\]
*689 core_io_dbus_rdata\[16\]
*690 core_io_dbus_rdata\[17\]
*691 core_io_dbus_rdata\[18\]
*692 core_io_dbus_rdata\[19\]
*693 core_io_dbus_rdata\[1\]
*694 core_io_dbus_rdata\[20\]
*695 core_io_dbus_rdata\[21\]
*696 core_io_dbus_rdata\[22\]
*697 core_io_dbus_rdata\[23\]
*698 core_io_dbus_rdata\[24\]
*699 core_io_dbus_rdata\[25\]
*700 core_io_dbus_rdata\[26\]
*701 core_io_dbus_rdata\[27\]
*702 core_io_dbus_rdata\[28\]
*703 core_io_dbus_rdata\[29\]
*704 core_io_dbus_rdata\[2\]
*705 core_io_dbus_rdata\[30\]
*706 core_io_dbus_rdata\[31\]
*707 core_io_dbus_rdata\[3\]
*708 core_io_dbus_rdata\[4\]
*709 core_io_dbus_rdata\[5\]
*710 core_io_dbus_rdata\[6\]
*711 core_io_dbus_rdata\[7\]
*712 core_io_dbus_rdata\[8\]
*713 core_io_dbus_rdata\[9\]
*714 core_io_dbus_st_type\[0\]
*715 core_io_dbus_st_type\[1\]
*716 core_io_dbus_valid
*717 core_io_dbus_wdata\[0\]
*718 core_io_dbus_wdata\[10\]
*719 core_io_dbus_wdata\[11\]
*720 core_io_dbus_wdata\[12\]
*721 core_io_dbus_wdata\[13\]
*722 core_io_dbus_wdata\[14\]
*723 core_io_dbus_wdata\[15\]
*724 core_io_dbus_wdata\[16\]
*725 core_io_dbus_wdata\[17\]
*726 core_io_dbus_wdata\[18\]
*727 core_io_dbus_wdata\[19\]
*728 core_io_dbus_wdata\[1\]
*729 core_io_dbus_wdata\[20\]
*730 core_io_dbus_wdata\[21\]
*731 core_io_dbus_wdata\[22\]
*732 core_io_dbus_wdata\[23\]
*733 core_io_dbus_wdata\[24\]
*734 core_io_dbus_wdata\[25\]
*735 core_io_dbus_wdata\[26\]
*736 core_io_dbus_wdata\[27\]
*737 core_io_dbus_wdata\[28\]
*738 core_io_dbus_wdata\[29\]
*739 core_io_dbus_wdata\[2\]
*740 core_io_dbus_wdata\[30\]
*741 core_io_dbus_wdata\[31\]
*742 core_io_dbus_wdata\[3\]
*743 core_io_dbus_wdata\[4\]
*744 core_io_dbus_wdata\[5\]
*745 core_io_dbus_wdata\[6\]
*746 core_io_dbus_wdata\[7\]
*747 core_io_dbus_wdata\[8\]
*748 core_io_dbus_wdata\[9\]
*749 core_io_dbus_wr_en
*750 core_io_ibus_addr\[0\]
*751 core_io_ibus_addr\[10\]
*752 core_io_ibus_addr\[11\]
*753 core_io_ibus_addr\[12\]
*754 core_io_ibus_addr\[13\]
*755 core_io_ibus_addr\[14\]
*756 core_io_ibus_addr\[15\]
*757 core_io_ibus_addr\[16\]
*758 core_io_ibus_addr\[17\]
*759 core_io_ibus_addr\[18\]
*760 core_io_ibus_addr\[19\]
*761 core_io_ibus_addr\[1\]
*762 core_io_ibus_addr\[20\]
*763 core_io_ibus_addr\[21\]
*764 core_io_ibus_addr\[22\]
*765 core_io_ibus_addr\[23\]
*766 core_io_ibus_addr\[24\]
*767 core_io_ibus_addr\[25\]
*768 core_io_ibus_addr\[26\]
*769 core_io_ibus_addr\[27\]
*770 core_io_ibus_addr\[28\]
*771 core_io_ibus_addr\[29\]
*772 core_io_ibus_addr\[2\]
*773 core_io_ibus_addr\[30\]
*774 core_io_ibus_addr\[31\]
*775 core_io_ibus_addr\[3\]
*776 core_io_ibus_addr\[4\]
*777 core_io_ibus_addr\[5\]
*778 core_io_ibus_addr\[6\]
*779 core_io_ibus_addr\[7\]
*780 core_io_ibus_addr\[8\]
*781 core_io_ibus_addr\[9\]
*782 core_io_ibus_inst\[0\]
*783 core_io_ibus_inst\[10\]
*784 core_io_ibus_inst\[11\]
*785 core_io_ibus_inst\[12\]
*786 core_io_ibus_inst\[13\]
*787 core_io_ibus_inst\[14\]
*788 core_io_ibus_inst\[15\]
*789 core_io_ibus_inst\[16\]
*790 core_io_ibus_inst\[17\]
*791 core_io_ibus_inst\[18\]
*792 core_io_ibus_inst\[19\]
*793 core_io_ibus_inst\[1\]
*794 core_io_ibus_inst\[20\]
*795 core_io_ibus_inst\[21\]
*796 core_io_ibus_inst\[22\]
*797 core_io_ibus_inst\[23\]
*798 core_io_ibus_inst\[24\]
*799 core_io_ibus_inst\[25\]
*800 core_io_ibus_inst\[26\]
*801 core_io_ibus_inst\[27\]
*802 core_io_ibus_inst\[28\]
*803 core_io_ibus_inst\[29\]
*804 core_io_ibus_inst\[2\]
*805 core_io_ibus_inst\[30\]
*806 core_io_ibus_inst\[31\]
*807 core_io_ibus_inst\[3\]
*808 core_io_ibus_inst\[4\]
*809 core_io_ibus_inst\[5\]
*810 core_io_ibus_inst\[6\]
*811 core_io_ibus_inst\[7\]
*812 core_io_ibus_inst\[8\]
*813 core_io_ibus_inst\[9\]
*814 core_io_ibus_valid
*815 core_io_irq_motor_irq
*816 core_io_irq_spi_irq
*817 core_io_irq_uart_irq
*818 dmem_io_addr\[0\]
*819 dmem_io_addr\[1\]
*820 dmem_io_addr\[2\]
*821 dmem_io_addr\[3\]
*822 dmem_io_addr\[4\]
*823 dmem_io_addr\[5\]
*824 dmem_io_addr\[6\]
*825 dmem_io_addr\[7\]
*826 dmem_io_cs
*827 dmem_io_rdata\[0\]
*828 dmem_io_rdata\[10\]
*829 dmem_io_rdata\[11\]
*830 dmem_io_rdata\[12\]
*831 dmem_io_rdata\[13\]
*832 dmem_io_rdata\[14\]
*833 dmem_io_rdata\[15\]
*834 dmem_io_rdata\[16\]
*835 dmem_io_rdata\[17\]
*836 dmem_io_rdata\[18\]
*837 dmem_io_rdata\[19\]
*838 dmem_io_rdata\[1\]
*839 dmem_io_rdata\[20\]
*840 dmem_io_rdata\[21\]
*841 dmem_io_rdata\[22\]
*842 dmem_io_rdata\[23\]
*843 dmem_io_rdata\[24\]
*844 dmem_io_rdata\[25\]
*845 dmem_io_rdata\[26\]
*846 dmem_io_rdata\[27\]
*847 dmem_io_rdata\[28\]
*848 dmem_io_rdata\[29\]
*849 dmem_io_rdata\[2\]
*850 dmem_io_rdata\[30\]
*851 dmem_io_rdata\[31\]
*852 dmem_io_rdata\[3\]
*853 dmem_io_rdata\[4\]
*854 dmem_io_rdata\[5\]
*855 dmem_io_rdata\[6\]
*856 dmem_io_rdata\[7\]
*857 dmem_io_rdata\[8\]
*858 dmem_io_rdata\[9\]
*859 dmem_io_st_type\[0\]
*860 dmem_io_st_type\[1\]
*861 dmem_io_st_type\[2\]
*862 dmem_io_st_type\[3\]
*863 dmem_io_wdata\[0\]
*864 dmem_io_wdata\[10\]
*865 dmem_io_wdata\[11\]
*866 dmem_io_wdata\[12\]
*867 dmem_io_wdata\[13\]
*868 dmem_io_wdata\[14\]
*869 dmem_io_wdata\[15\]
*870 dmem_io_wdata\[16\]
*871 dmem_io_wdata\[17\]
*872 dmem_io_wdata\[18\]
*873 dmem_io_wdata\[19\]
*874 dmem_io_wdata\[1\]
*875 dmem_io_wdata\[20\]
*876 dmem_io_wdata\[21\]
*877 dmem_io_wdata\[22\]
*878 dmem_io_wdata\[23\]
*879 dmem_io_wdata\[24\]
*880 dmem_io_wdata\[25\]
*881 dmem_io_wdata\[26\]
*882 dmem_io_wdata\[27\]
*883 dmem_io_wdata\[28\]
*884 dmem_io_wdata\[29\]
*885 dmem_io_wdata\[2\]
*886 dmem_io_wdata\[30\]
*887 dmem_io_wdata\[31\]
*888 dmem_io_wdata\[3\]
*889 dmem_io_wdata\[4\]
*890 dmem_io_wdata\[5\]
*891 dmem_io_wdata\[6\]
*892 dmem_io_wdata\[7\]
*893 dmem_io_wdata\[8\]
*894 dmem_io_wdata\[9\]
*895 dmem_io_wr_en
*896 imem_io_addr\[0\]
*897 imem_io_addr\[1\]
*898 imem_io_addr\[2\]
*899 imem_io_addr\[3\]
*900 imem_io_addr\[4\]
*901 imem_io_addr\[5\]
*902 imem_io_addr\[6\]
*903 imem_io_addr\[7\]
*904 imem_io_addr\[8\]
*905 imem_io_cs
*906 imem_io_rdata\[0\]
*907 imem_io_rdata\[10\]
*908 imem_io_rdata\[11\]
*909 imem_io_rdata\[12\]
*910 imem_io_rdata\[13\]
*911 imem_io_rdata\[14\]
*912 imem_io_rdata\[15\]
*913 imem_io_rdata\[16\]
*914 imem_io_rdata\[17\]
*915 imem_io_rdata\[18\]
*916 imem_io_rdata\[19\]
*917 imem_io_rdata\[1\]
*918 imem_io_rdata\[20\]
*919 imem_io_rdata\[21\]
*920 imem_io_rdata\[22\]
*921 imem_io_rdata\[23\]
*922 imem_io_rdata\[24\]
*923 imem_io_rdata\[25\]
*924 imem_io_rdata\[26\]
*925 imem_io_rdata\[27\]
*926 imem_io_rdata\[28\]
*927 imem_io_rdata\[29\]
*928 imem_io_rdata\[2\]
*929 imem_io_rdata\[30\]
*930 imem_io_rdata\[31\]
*931 imem_io_rdata\[3\]
*932 imem_io_rdata\[4\]
*933 imem_io_rdata\[5\]
*934 imem_io_rdata\[6\]
*935 imem_io_rdata\[7\]
*936 imem_io_rdata\[8\]
*937 imem_io_rdata\[9\]
*938 imem_io_wdata\[0\]
*939 imem_io_wdata\[10\]
*940 imem_io_wdata\[11\]
*941 imem_io_wdata\[12\]
*942 imem_io_wdata\[13\]
*943 imem_io_wdata\[14\]
*944 imem_io_wdata\[15\]
*945 imem_io_wdata\[16\]
*946 imem_io_wdata\[17\]
*947 imem_io_wdata\[18\]
*948 imem_io_wdata\[19\]
*949 imem_io_wdata\[1\]
*950 imem_io_wdata\[20\]
*951 imem_io_wdata\[21\]
*952 imem_io_wdata\[22\]
*953 imem_io_wdata\[23\]
*954 imem_io_wdata\[24\]
*955 imem_io_wdata\[25\]
*956 imem_io_wdata\[26\]
*957 imem_io_wdata\[27\]
*958 imem_io_wdata\[28\]
*959 imem_io_wdata\[29\]
*960 imem_io_wdata\[2\]
*961 imem_io_wdata\[30\]
*962 imem_io_wdata\[31\]
*963 imem_io_wdata\[3\]
*964 imem_io_wdata\[4\]
*965 imem_io_wdata\[5\]
*966 imem_io_wdata\[6\]
*967 imem_io_wdata\[7\]
*968 imem_io_wdata\[8\]
*969 imem_io_wdata\[9\]
*970 imem_io_wr_en
*971 motor_io_ba_match
*972 motor_io_wbs_ack_o
*973 motor_io_wbs_data_o\[0\]
*974 motor_io_wbs_data_o\[10\]
*975 motor_io_wbs_data_o\[11\]
*976 motor_io_wbs_data_o\[12\]
*977 motor_io_wbs_data_o\[13\]
*978 motor_io_wbs_data_o\[14\]
*979 motor_io_wbs_data_o\[15\]
*980 motor_io_wbs_data_o\[16\]
*981 motor_io_wbs_data_o\[17\]
*982 motor_io_wbs_data_o\[18\]
*983 motor_io_wbs_data_o\[19\]
*984 motor_io_wbs_data_o\[1\]
*985 motor_io_wbs_data_o\[20\]
*986 motor_io_wbs_data_o\[21\]
*987 motor_io_wbs_data_o\[22\]
*988 motor_io_wbs_data_o\[23\]
*989 motor_io_wbs_data_o\[24\]
*990 motor_io_wbs_data_o\[25\]
*991 motor_io_wbs_data_o\[26\]
*992 motor_io_wbs_data_o\[27\]
*993 motor_io_wbs_data_o\[28\]
*994 motor_io_wbs_data_o\[29\]
*995 motor_io_wbs_data_o\[2\]
*996 motor_io_wbs_data_o\[30\]
*997 motor_io_wbs_data_o\[31\]
*998 motor_io_wbs_data_o\[3\]
*999 motor_io_wbs_data_o\[4\]
*1000 motor_io_wbs_data_o\[5\]
*1001 motor_io_wbs_data_o\[6\]
*1002 motor_io_wbs_data_o\[7\]
*1003 motor_io_wbs_data_o\[8\]
*1004 motor_io_wbs_data_o\[9\]
*1005 motor_io_wbs_m2s_addr\[0\]
*1006 motor_io_wbs_m2s_addr\[10\]
*1007 motor_io_wbs_m2s_addr\[11\]
*1008 motor_io_wbs_m2s_addr\[12\]
*1009 motor_io_wbs_m2s_addr\[13\]
*1010 motor_io_wbs_m2s_addr\[14\]
*1011 motor_io_wbs_m2s_addr\[15\]
*1012 motor_io_wbs_m2s_addr\[1\]
*1013 motor_io_wbs_m2s_addr\[2\]
*1014 motor_io_wbs_m2s_addr\[3\]
*1015 motor_io_wbs_m2s_addr\[4\]
*1016 motor_io_wbs_m2s_addr\[5\]
*1017 motor_io_wbs_m2s_addr\[6\]
*1018 motor_io_wbs_m2s_addr\[7\]
*1019 motor_io_wbs_m2s_addr\[8\]
*1020 motor_io_wbs_m2s_addr\[9\]
*1021 motor_io_wbs_m2s_data\[0\]
*1022 motor_io_wbs_m2s_data\[10\]
*1023 motor_io_wbs_m2s_data\[11\]
*1024 motor_io_wbs_m2s_data\[12\]
*1025 motor_io_wbs_m2s_data\[13\]
*1026 motor_io_wbs_m2s_data\[14\]
*1027 motor_io_wbs_m2s_data\[15\]
*1028 motor_io_wbs_m2s_data\[16\]
*1029 motor_io_wbs_m2s_data\[17\]
*1030 motor_io_wbs_m2s_data\[18\]
*1031 motor_io_wbs_m2s_data\[19\]
*1032 motor_io_wbs_m2s_data\[1\]
*1033 motor_io_wbs_m2s_data\[20\]
*1034 motor_io_wbs_m2s_data\[21\]
*1035 motor_io_wbs_m2s_data\[22\]
*1036 motor_io_wbs_m2s_data\[23\]
*1037 motor_io_wbs_m2s_data\[24\]
*1038 motor_io_wbs_m2s_data\[25\]
*1039 motor_io_wbs_m2s_data\[26\]
*1040 motor_io_wbs_m2s_data\[27\]
*1041 motor_io_wbs_m2s_data\[28\]
*1042 motor_io_wbs_m2s_data\[29\]
*1043 motor_io_wbs_m2s_data\[2\]
*1044 motor_io_wbs_m2s_data\[30\]
*1045 motor_io_wbs_m2s_data\[31\]
*1046 motor_io_wbs_m2s_data\[3\]
*1047 motor_io_wbs_m2s_data\[4\]
*1048 motor_io_wbs_m2s_data\[5\]
*1049 motor_io_wbs_m2s_data\[6\]
*1050 motor_io_wbs_m2s_data\[7\]
*1051 motor_io_wbs_m2s_data\[8\]
*1052 motor_io_wbs_m2s_data\[9\]
*1053 motor_io_wbs_m2s_sel\[0\]
*1054 motor_io_wbs_m2s_sel\[1\]
*1055 motor_io_wbs_m2s_sel\[2\]
*1056 motor_io_wbs_m2s_sel\[3\]
*1057 motor_io_wbs_m2s_stb
*1058 motor_io_wbs_m2s_we
*1059 core
*1060 dmem
*1061 imem
*1062 motor
*1063 wb_inter_connect

*PORTS
analog_io[0] I
analog_io[10] I
analog_io[11] I
analog_io[12] I
analog_io[13] I
analog_io[14] I
analog_io[15] I
analog_io[16] I
analog_io[17] I
analog_io[18] I
analog_io[19] I
analog_io[1] I
analog_io[20] I
analog_io[21] I
analog_io[22] I
analog_io[23] I
analog_io[24] I
analog_io[25] I
analog_io[26] I
analog_io[27] I
analog_io[28] I
analog_io[2] I
analog_io[3] I
analog_io[4] I
analog_io[5] I
analog_io[6] I
analog_io[7] I
analog_io[8] I
analog_io[9] I
io_in[0] I
io_in[10] I
io_in[11] I
io_in[12] I
io_in[13] I
io_in[14] I
io_in[15] I
io_in[16] I
io_in[17] I
io_in[18] I
io_in[19] I
io_in[1] I
io_in[20] I
io_in[21] I
io_in[22] I
io_in[23] I
io_in[24] I
io_in[25] I
io_in[26] I
io_in[27] I
io_in[28] I
io_in[29] I
io_in[2] I
io_in[30] I
io_in[31] I
io_in[32] I
io_in[33] I
io_in[34] I
io_in[35] I
io_in[36] I
io_in[37] I
io_in[3] I
io_in[4] I
io_in[5] I
io_in[6] I
io_in[7] I
io_in[8] I
io_in[9] I
io_oeb[0] O
io_oeb[10] O
io_oeb[11] O
io_oeb[12] O
io_oeb[13] O
io_oeb[14] O
io_oeb[15] O
io_oeb[16] O
io_oeb[17] O
io_oeb[18] O
io_oeb[19] O
io_oeb[1] O
io_oeb[20] O
io_oeb[21] O
io_oeb[22] O
io_oeb[23] O
io_oeb[24] O
io_oeb[25] O
io_oeb[26] O
io_oeb[27] O
io_oeb[28] O
io_oeb[29] O
io_oeb[2] O
io_oeb[30] O
io_oeb[31] O
io_oeb[32] O
io_oeb[33] O
io_oeb[34] O
io_oeb[35] O
io_oeb[36] O
io_oeb[37] O
io_oeb[3] O
io_oeb[4] O
io_oeb[5] O
io_oeb[6] O
io_oeb[7] O
io_oeb[8] O
io_oeb[9] O
io_out[0] O
io_out[10] O
io_out[11] O
io_out[12] O
io_out[13] O
io_out[14] O
io_out[15] O
io_out[16] O
io_out[17] O
io_out[18] O
io_out[19] O
io_out[1] O
io_out[20] O
io_out[21] O
io_out[22] O
io_out[23] O
io_out[24] O
io_out[25] O
io_out[26] O
io_out[27] O
io_out[28] O
io_out[29] O
io_out[2] O
io_out[30] O
io_out[31] O
io_out[32] O
io_out[33] O
io_out[34] O
io_out[35] O
io_out[36] O
io_out[37] O
io_out[3] O
io_out[4] O
io_out[5] O
io_out[6] O
io_out[7] O
io_out[8] O
io_out[9] O
la_data_in[0] I
la_data_in[100] I
la_data_in[101] I
la_data_in[102] I
la_data_in[103] I
la_data_in[104] I
la_data_in[105] I
la_data_in[106] I
la_data_in[107] I
la_data_in[108] I
la_data_in[109] I
la_data_in[10] I
la_data_in[110] I
la_data_in[111] I
la_data_in[112] I
la_data_in[113] I
la_data_in[114] I
la_data_in[115] I
la_data_in[116] I
la_data_in[117] I
la_data_in[118] I
la_data_in[119] I
la_data_in[11] I
la_data_in[120] I
la_data_in[121] I
la_data_in[122] I
la_data_in[123] I
la_data_in[124] I
la_data_in[125] I
la_data_in[126] I
la_data_in[127] I
la_data_in[12] I
la_data_in[13] I
la_data_in[14] I
la_data_in[15] I
la_data_in[16] I
la_data_in[17] I
la_data_in[18] I
la_data_in[19] I
la_data_in[1] I
la_data_in[20] I
la_data_in[21] I
la_data_in[22] I
la_data_in[23] I
la_data_in[24] I
la_data_in[25] I
la_data_in[26] I
la_data_in[27] I
la_data_in[28] I
la_data_in[29] I
la_data_in[2] I
la_data_in[30] I
la_data_in[31] I
la_data_in[32] I
la_data_in[33] I
la_data_in[34] I
la_data_in[35] I
la_data_in[36] I
la_data_in[37] I
la_data_in[38] I
la_data_in[39] I
la_data_in[3] I
la_data_in[40] I
la_data_in[41] I
la_data_in[42] I
la_data_in[43] I
la_data_in[44] I
la_data_in[45] I
la_data_in[46] I
la_data_in[47] I
la_data_in[48] I
la_data_in[49] I
la_data_in[4] I
la_data_in[50] I
la_data_in[51] I
la_data_in[52] I
la_data_in[53] I
la_data_in[54] I
la_data_in[55] I
la_data_in[56] I
la_data_in[57] I
la_data_in[58] I
la_data_in[59] I
la_data_in[5] I
la_data_in[60] I
la_data_in[61] I
la_data_in[62] I
la_data_in[63] I
la_data_in[64] I
la_data_in[65] I
la_data_in[66] I
la_data_in[67] I
la_data_in[68] I
la_data_in[69] I
la_data_in[6] I
la_data_in[70] I
la_data_in[71] I
la_data_in[72] I
la_data_in[73] I
la_data_in[74] I
la_data_in[75] I
la_data_in[76] I
la_data_in[77] I
la_data_in[78] I
la_data_in[79] I
la_data_in[7] I
la_data_in[80] I
la_data_in[81] I
la_data_in[82] I
la_data_in[83] I
la_data_in[84] I
la_data_in[85] I
la_data_in[86] I
la_data_in[87] I
la_data_in[88] I
la_data_in[89] I
la_data_in[8] I
la_data_in[90] I
la_data_in[91] I
la_data_in[92] I
la_data_in[93] I
la_data_in[94] I
la_data_in[95] I
la_data_in[96] I
la_data_in[97] I
la_data_in[98] I
la_data_in[99] I
la_data_in[9] I
la_data_out[0] O
la_data_out[100] O
la_data_out[101] O
la_data_out[102] O
la_data_out[103] O
la_data_out[104] O
la_data_out[105] O
la_data_out[106] O
la_data_out[107] O
la_data_out[108] O
la_data_out[109] O
la_data_out[10] O
la_data_out[110] O
la_data_out[111] O
la_data_out[112] O
la_data_out[113] O
la_data_out[114] O
la_data_out[115] O
la_data_out[116] O
la_data_out[117] O
la_data_out[118] O
la_data_out[119] O
la_data_out[11] O
la_data_out[120] O
la_data_out[121] O
la_data_out[122] O
la_data_out[123] O
la_data_out[124] O
la_data_out[125] O
la_data_out[126] O
la_data_out[127] O
la_data_out[12] O
la_data_out[13] O
la_data_out[14] O
la_data_out[15] O
la_data_out[16] O
la_data_out[17] O
la_data_out[18] O
la_data_out[19] O
la_data_out[1] O
la_data_out[20] O
la_data_out[21] O
la_data_out[22] O
la_data_out[23] O
la_data_out[24] O
la_data_out[25] O
la_data_out[26] O
la_data_out[27] O
la_data_out[28] O
la_data_out[29] O
la_data_out[2] O
la_data_out[30] O
la_data_out[31] O
la_data_out[32] O
la_data_out[33] O
la_data_out[34] O
la_data_out[35] O
la_data_out[36] O
la_data_out[37] O
la_data_out[38] O
la_data_out[39] O
la_data_out[3] O
la_data_out[40] O
la_data_out[41] O
la_data_out[42] O
la_data_out[43] O
la_data_out[44] O
la_data_out[45] O
la_data_out[46] O
la_data_out[47] O
la_data_out[48] O
la_data_out[49] O
la_data_out[4] O
la_data_out[50] O
la_data_out[51] O
la_data_out[52] O
la_data_out[53] O
la_data_out[54] O
la_data_out[55] O
la_data_out[56] O
la_data_out[57] O
la_data_out[58] O
la_data_out[59] O
la_data_out[5] O
la_data_out[60] O
la_data_out[61] O
la_data_out[62] O
la_data_out[63] O
la_data_out[64] O
la_data_out[65] O
la_data_out[66] O
la_data_out[67] O
la_data_out[68] O
la_data_out[69] O
la_data_out[6] O
la_data_out[70] O
la_data_out[71] O
la_data_out[72] O
la_data_out[73] O
la_data_out[74] O
la_data_out[75] O
la_data_out[76] O
la_data_out[77] O
la_data_out[78] O
la_data_out[79] O
la_data_out[7] O
la_data_out[80] O
la_data_out[81] O
la_data_out[82] O
la_data_out[83] O
la_data_out[84] O
la_data_out[85] O
la_data_out[86] O
la_data_out[87] O
la_data_out[88] O
la_data_out[89] O
la_data_out[8] O
la_data_out[90] O
la_data_out[91] O
la_data_out[92] O
la_data_out[93] O
la_data_out[94] O
la_data_out[95] O
la_data_out[96] O
la_data_out[97] O
la_data_out[98] O
la_data_out[99] O
la_data_out[9] O