*SPEF "ieee 1481-1999"
*DESIGN "WB_InterConnect"
*DATE "11:11:11 Fri 11 11, 1111"
*VENDOR "OpenRCX"
*PROGRAM "Parallel Extraction"
*VERSION "1.0"
*DESIGN_FLOW "NAME_SCOPE LOCAL" "PIN_CAP NONE"
*DIVIDER /
*DELIMITER :
*BUS_DELIMITER []
*T_UNIT 1 NS
*C_UNIT 1 PF
*R_UNIT 1 OHM
*L_UNIT 1 HENRY

*NAME_MAP
*1 clock
*2 io_dbus_addr[0]
*3 io_dbus_addr[10]
*4 io_dbus_addr[11]
*5 io_dbus_addr[12]
*6 io_dbus_addr[13]
*7 io_dbus_addr[14]
*8 io_dbus_addr[15]
*9 io_dbus_addr[16]
*10 io_dbus_addr[17]
*11 io_dbus_addr[18]
*12 io_dbus_addr[19]
*13 io_dbus_addr[1]
*14 io_dbus_addr[20]
*15 io_dbus_addr[21]
*16 io_dbus_addr[22]
*17 io_dbus_addr[23]
*18 io_dbus_addr[24]
*19 io_dbus_addr[25]
*20 io_dbus_addr[26]
*21 io_dbus_addr[27]
*22 io_dbus_addr[28]
*23 io_dbus_addr[29]
*24 io_dbus_addr[2]
*25 io_dbus_addr[30]
*26 io_dbus_addr[31]
*27 io_dbus_addr[3]
*28 io_dbus_addr[4]
*29 io_dbus_addr[5]
*30 io_dbus_addr[6]
*31 io_dbus_addr[7]
*32 io_dbus_addr[8]
*33 io_dbus_addr[9]
*34 io_dbus_ld_type[0]
*35 io_dbus_ld_type[1]
*36 io_dbus_ld_type[2]
*37 io_dbus_rd_en
*38 io_dbus_rdata[0]
*39 io_dbus_rdata[10]
*40 io_dbus_rdata[11]
*41 io_dbus_rdata[12]
*42 io_dbus_rdata[13]
*43 io_dbus_rdata[14]
*44 io_dbus_rdata[15]
*45 io_dbus_rdata[16]
*46 io_dbus_rdata[17]
*47 io_dbus_rdata[18]
*48 io_dbus_rdata[19]
*49 io_dbus_rdata[1]
*50 io_dbus_rdata[20]
*51 io_dbus_rdata[21]
*52 io_dbus_rdata[22]
*53 io_dbus_rdata[23]
*54 io_dbus_rdata[24]
*55 io_dbus_rdata[25]
*56 io_dbus_rdata[26]
*57 io_dbus_rdata[27]
*58 io_dbus_rdata[28]
*59 io_dbus_rdata[29]
*60 io_dbus_rdata[2]
*61 io_dbus_rdata[30]
*62 io_dbus_rdata[31]
*63 io_dbus_rdata[3]
*64 io_dbus_rdata[4]
*65 io_dbus_rdata[5]
*66 io_dbus_rdata[6]
*67 io_dbus_rdata[7]
*68 io_dbus_rdata[8]
*69 io_dbus_rdata[9]
*70 io_dbus_st_type[0]
*71 io_dbus_st_type[1]
*72 io_dbus_valid
*73 io_dbus_wdata[0]
*74 io_dbus_wdata[10]
*75 io_dbus_wdata[11]
*76 io_dbus_wdata[12]
*77 io_dbus_wdata[13]
*78 io_dbus_wdata[14]
*79 io_dbus_wdata[15]
*80 io_dbus_wdata[16]
*81 io_dbus_wdata[17]
*82 io_dbus_wdata[18]
*83 io_dbus_wdata[19]
*84 io_dbus_wdata[1]
*85 io_dbus_wdata[20]
*86 io_dbus_wdata[21]
*87 io_dbus_wdata[22]
*88 io_dbus_wdata[23]
*89 io_dbus_wdata[24]
*90 io_dbus_wdata[25]
*91 io_dbus_wdata[26]
*92 io_dbus_wdata[27]
*93 io_dbus_wdata[28]
*94 io_dbus_wdata[29]
*95 io_dbus_wdata[2]
*96 io_dbus_wdata[30]
*97 io_dbus_wdata[31]
*98 io_dbus_wdata[3]
*99 io_dbus_wdata[4]
*100 io_dbus_wdata[5]
*101 io_dbus_wdata[6]
*102 io_dbus_wdata[7]
*103 io_dbus_wdata[8]
*104 io_dbus_wdata[9]
*105 io_dbus_wr_en
*106 io_dmem_io_addr[0]
*107 io_dmem_io_addr[1]
*108 io_dmem_io_addr[2]
*109 io_dmem_io_addr[3]
*110 io_dmem_io_addr[4]
*111 io_dmem_io_addr[5]
*112 io_dmem_io_addr[6]
*113 io_dmem_io_addr[7]
*114 io_dmem_io_cs
*115 io_dmem_io_rdata[0]
*116 io_dmem_io_rdata[10]
*117 io_dmem_io_rdata[11]
*118 io_dmem_io_rdata[12]
*119 io_dmem_io_rdata[13]
*120 io_dmem_io_rdata[14]
*121 io_dmem_io_rdata[15]
*122 io_dmem_io_rdata[16]
*123 io_dmem_io_rdata[17]
*124 io_dmem_io_rdata[18]
*125 io_dmem_io_rdata[19]
*126 io_dmem_io_rdata[1]
*127 io_dmem_io_rdata[20]
*128 io_dmem_io_rdata[21]
*129 io_dmem_io_rdata[22]
*130 io_dmem_io_rdata[23]
*131 io_dmem_io_rdata[24]
*132 io_dmem_io_rdata[25]
*133 io_dmem_io_rdata[26]
*134 io_dmem_io_rdata[27]
*135 io_dmem_io_rdata[28]
*136 io_dmem_io_rdata[29]
*137 io_dmem_io_rdata[2]
*138 io_dmem_io_rdata[30]
*139 io_dmem_io_rdata[31]
*140 io_dmem_io_rdata[3]
*141 io_dmem_io_rdata[4]
*142 io_dmem_io_rdata[5]
*143 io_dmem_io_rdata[6]
*144 io_dmem_io_rdata[7]
*145 io_dmem_io_rdata[8]
*146 io_dmem_io_rdata[9]
*147 io_dmem_io_st_type[0]
*148 io_dmem_io_st_type[1]
*149 io_dmem_io_st_type[2]
*150 io_dmem_io_st_type[3]
*151 io_dmem_io_wdata[0]
*152 io_dmem_io_wdata[10]
*153 io_dmem_io_wdata[11]
*154 io_dmem_io_wdata[12]
*155 io_dmem_io_wdata[13]
*156 io_dmem_io_wdata[14]
*157 io_dmem_io_wdata[15]
*158 io_dmem_io_wdata[16]
*159 io_dmem_io_wdata[17]
*160 io_dmem_io_wdata[18]
*161 io_dmem_io_wdata[19]
*162 io_dmem_io_wdata[1]
*163 io_dmem_io_wdata[20]
*164 io_dmem_io_wdata[21]
*165 io_dmem_io_wdata[22]
*166 io_dmem_io_wdata[23]
*167 io_dmem_io_wdata[24]
*168 io_dmem_io_wdata[25]
*169 io_dmem_io_wdata[26]
*170 io_dmem_io_wdata[27]
*171 io_dmem_io_wdata[28]
*172 io_dmem_io_wdata[29]
*173 io_dmem_io_wdata[2]
*174 io_dmem_io_wdata[30]
*175 io_dmem_io_wdata[31]
*176 io_dmem_io_wdata[3]
*177 io_dmem_io_wdata[4]
*178 io_dmem_io_wdata[5]
*179 io_dmem_io_wdata[6]
*180 io_dmem_io_wdata[7]
*181 io_dmem_io_wdata[8]
*182 io_dmem_io_wdata[9]
*183 io_dmem_io_wr_en
*184 io_ibus_addr[0]
*185 io_ibus_addr[10]
*186 io_ibus_addr[11]
*187 io_ibus_addr[12]
*188 io_ibus_addr[13]
*189 io_ibus_addr[14]
*190 io_ibus_addr[15]
*191 io_ibus_addr[16]
*192 io_ibus_addr[17]
*193 io_ibus_addr[18]
*194 io_ibus_addr[19]
*195 io_ibus_addr[1]
*196 io_ibus_addr[20]
*197 io_ibus_addr[21]
*198 io_ibus_addr[22]
*199 io_ibus_addr[23]
*200 io_ibus_addr[24]
*201 io_ibus_addr[25]
*202 io_ibus_addr[26]
*203 io_ibus_addr[27]
*204 io_ibus_addr[28]
*205 io_ibus_addr[29]
*206 io_ibus_addr[2]
*207 io_ibus_addr[30]
*208 io_ibus_addr[31]
*209 io_ibus_addr[3]
*210 io_ibus_addr[4]
*211 io_ibus_addr[5]
*212 io_ibus_addr[6]
*213 io_ibus_addr[7]
*214 io_ibus_addr[8]
*215 io_ibus_addr[9]
*216 io_ibus_inst[0]
*217 io_ibus_inst[10]
*218 io_ibus_inst[11]
*219 io_ibus_inst[12]
*220 io_ibus_inst[13]
*221 io_ibus_inst[14]
*222 io_ibus_inst[15]
*223 io_ibus_inst[16]
*224 io_ibus_inst[17]
*225 io_ibus_inst[18]
*226 io_ibus_inst[19]
*227 io_ibus_inst[1]
*228 io_ibus_inst[20]
*229 io_ibus_inst[21]
*230 io_ibus_inst[22]
*231 io_ibus_inst[23]
*232 io_ibus_inst[24]
*233 io_ibus_inst[25]
*234 io_ibus_inst[26]
*235 io_ibus_inst[27]
*236 io_ibus_inst[28]
*237 io_ibus_inst[29]
*238 io_ibus_inst[2]
*239 io_ibus_inst[30]
*240 io_ibus_inst[31]
*241 io_ibus_inst[3]
*242 io_ibus_inst[4]
*243 io_ibus_inst[5]
*244 io_ibus_inst[6]
*245 io_ibus_inst[7]
*246 io_ibus_inst[8]
*247 io_ibus_inst[9]
*248 io_ibus_valid
*249 io_imem_io_addr[0]
*250 io_imem_io_addr[1]
*251 io_imem_io_addr[2]
*252 io_imem_io_addr[3]
*253 io_imem_io_addr[4]
*254 io_imem_io_addr[5]
*255 io_imem_io_addr[6]
*256 io_imem_io_addr[7]
*257 io_imem_io_addr[8]
*258 io_imem_io_cs
*259 io_imem_io_rdata[0]
*260 io_imem_io_rdata[10]
*261 io_imem_io_rdata[11]
*262 io_imem_io_rdata[12]
*263 io_imem_io_rdata[13]
*264 io_imem_io_rdata[14]
*265 io_imem_io_rdata[15]
*266 io_imem_io_rdata[16]
*267 io_imem_io_rdata[17]
*268 io_imem_io_rdata[18]
*269 io_imem_io_rdata[19]
*270 io_imem_io_rdata[1]
*271 io_imem_io_rdata[20]
*272 io_imem_io_rdata[21]
*273 io_imem_io_rdata[22]
*274 io_imem_io_rdata[23]
*275 io_imem_io_rdata[24]
*276 io_imem_io_rdata[25]
*277 io_imem_io_rdata[26]
*278 io_imem_io_rdata[27]
*279 io_imem_io_rdata[28]
*280 io_imem_io_rdata[29]
*281 io_imem_io_rdata[2]
*282 io_imem_io_rdata[30]
*283 io_imem_io_rdata[31]
*284 io_imem_io_rdata[3]
*285 io_imem_io_rdata[4]
*286 io_imem_io_rdata[5]
*287 io_imem_io_rdata[6]
*288 io_imem_io_rdata[7]
*289 io_imem_io_rdata[8]
*290 io_imem_io_rdata[9]
*291 io_imem_io_wdata[0]
*292 io_imem_io_wdata[10]
*293 io_imem_io_wdata[11]
*294 io_imem_io_wdata[12]
*295 io_imem_io_wdata[13]
*296 io_imem_io_wdata[14]
*297 io_imem_io_wdata[15]
*298 io_imem_io_wdata[16]
*299 io_imem_io_wdata[17]
*300 io_imem_io_wdata[18]
*301 io_imem_io_wdata[19]
*302 io_imem_io_wdata[1]
*303 io_imem_io_wdata[20]
*304 io_imem_io_wdata[21]
*305 io_imem_io_wdata[22]
*306 io_imem_io_wdata[23]
*307 io_imem_io_wdata[24]
*308 io_imem_io_wdata[25]
*309 io_imem_io_wdata[26]
*310 io_imem_io_wdata[27]
*311 io_imem_io_wdata[28]
*312 io_imem_io_wdata[29]
*313 io_imem_io_wdata[2]
*314 io_imem_io_wdata[30]
*315 io_imem_io_wdata[31]
*316 io_imem_io_wdata[3]
*317 io_imem_io_wdata[4]
*318 io_imem_io_wdata[5]
*319 io_imem_io_wdata[6]
*320 io_imem_io_wdata[7]
*321 io_imem_io_wdata[8]
*322 io_imem_io_wdata[9]
*323 io_imem_io_wr_en
*324 io_motor_ack_i
*325 io_motor_addr_sel
*326 io_motor_data_i[0]
*327 io_motor_data_i[10]
*328 io_motor_data_i[11]
*329 io_motor_data_i[12]
*330 io_motor_data_i[13]
*331 io_motor_data_i[14]
*332 io_motor_data_i[15]
*333 io_motor_data_i[16]
*334 io_motor_data_i[17]
*335 io_motor_data_i[18]
*336 io_motor_data_i[19]
*337 io_motor_data_i[1]
*338 io_motor_data_i[20]
*339 io_motor_data_i[21]
*340 io_motor_data_i[22]
*341 io_motor_data_i[23]
*342 io_motor_data_i[24]
*343 io_motor_data_i[25]
*344 io_motor_data_i[26]
*345 io_motor_data_i[27]
*346 io_motor_data_i[28]
*347 io_motor_data_i[29]
*348 io_motor_data_i[2]
*349 io_motor_data_i[30]
*350 io_motor_data_i[31]
*351 io_motor_data_i[3]
*352 io_motor_data_i[4]
*353 io_motor_data_i[5]
*354 io_motor_data_i[6]
*355 io_motor_data_i[7]
*356 io_motor_data_i[8]
*357 io_motor_data_i[9]
*358 io_spi_clk
*359 io_spi_cs
*360 io_spi_irq
*361 io_spi_miso
*362 io_spi_mosi
*363 io_uart_irq
*364 io_uart_rx
*365 io_uart_tx
*366 io_wbm_m2s_addr[0]
*367 io_wbm_m2s_addr[10]
*368 io_wbm_m2s_addr[11]
*369 io_wbm_m2s_addr[12]
*370 io_wbm_m2s_addr[13]
*371 io_wbm_m2s_addr[14]
*372 io_wbm_m2s_addr[15]
*373 io_wbm_m2s_addr[1]
*374 io_wbm_m2s_addr[2]
*375 io_wbm_m2s_addr[3]
*376 io_wbm_m2s_addr[4]
*377 io_wbm_m2s_addr[5]
*378 io_wbm_m2s_addr[6]
*379 io_wbm_m2s_addr[7]
*380 io_wbm_m2s_addr[8]
*381 io_wbm_m2s_addr[9]
*382 io_wbm_m2s_data[0]
*383 io_wbm_m2s_data[10]
*384 io_wbm_m2s_data[11]
*385 io_wbm_m2s_data[12]
*386 io_wbm_m2s_data[13]
*387 io_wbm_m2s_data[14]
*388 io_wbm_m2s_data[15]
*389 io_wbm_m2s_data[16]
*390 io_wbm_m2s_data[17]
*391 io_wbm_m2s_data[18]
*392 io_wbm_m2s_data[19]
*393 io_wbm_m2s_data[1]
*394 io_wbm_m2s_data[20]
*395 io_wbm_m2s_data[21]
*396 io_wbm_m2s_data[22]
*397 io_wbm_m2s_data[23]
*398 io_wbm_m2s_data[24]
*399 io_wbm_m2s_data[25]
*400 io_wbm_m2s_data[26]
*401 io_wbm_m2s_data[27]
*402 io_wbm_m2s_data[28]
*403 io_wbm_m2s_data[29]
*404 io_wbm_m2s_data[2]
*405 io_wbm_m2s_data[30]
*406 io_wbm_m2s_data[31]
*407 io_wbm_m2s_data[3]
*408 io_wbm_m2s_data[4]
*409 io_wbm_m2s_data[5]
*410 io_wbm_m2s_data[6]
*411 io_wbm_m2s_data[7]
*412 io_wbm_m2s_data[8]
*413 io_wbm_m2s_data[9]
*414 io_wbm_m2s_sel[0]
*415 io_wbm_m2s_sel[1]
*416 io_wbm_m2s_sel[2]
*417 io_wbm_m2s_sel[3]
*418 io_wbm_m2s_stb
*419 io_wbm_m2s_we
*420 reset
*423 _0000_
*424 _0001_
*425 _0002_
*426 _0003_
*427 _0004_
*428 _0005_
*429 _0006_
*430 _0007_
*431 _0008_
*432 _0009_
*433 _0010_
*434 _0011_
*435 _0012_
*436 _0013_
*437 _0014_
*438 _0015_
*439 _0016_
*440 _0017_
*441 _0018_
*442 _0019_
*443 _0020_
*444 _0021_
*445 _0022_
*446 _0023_
*447 _0024_
*448 _0025_
*449 _0026_
*450 _0027_
*451 _0028_
*452 _0029_
*453 _0030_
*454 _0031_
*455 _0032_
*456 _0033_
*457 _0034_
*458 _0035_
*459 _0036_
*460 _0037_
*461 _0038_
*462 _0039_
*463 _0040_
*464 _0041_
*465 _0042_
*466 _0043_
*467 _0044_
*468 _0045_
*469 _0046_
*470 _0047_
*471 _0048_
*472 _0049_
*473 _0050_
*474 _0051_
*475 _0052_
*476 _0053_
*477 _0054_
*478 _0055_
*479 _0056_
*480 _0057_
*481 _0058_
*482 _0059_
*483 _0060_
*484 _0061_
*485 _0062_
*486 _0063_
*487 _0064_
*488 _0065_
*489 _0066_
*490 _0067_
*491 _0068_
*492 _0069_
*493 _0070_
*494 _0071_
*495 _0072_
*496 _0073_
*497 _0074_
*498 _0075_
*499 _0076_
*500 _0077_
*501 _0078_
*502 _0079_
*503 _0080_
*504 _0081_
*505 _0082_
*506 _0083_
*507 _0084_
*508 _0085_
*509 _0086_
*510 _0087_
*511 _0088_
*512 _0089_
*513 _0090_
*514 _0091_
*515 _0092_
*516 _0093_
*517 _0094_
*518 _0095_
*519 _0096_
*520 _0097_
*521 _0098_
*522 _0099_
*523 _0100_
*524 _0101_
*525 _0102_
*526 _0103_
*527 _0104_
*528 _0105_
*529 _0106_
*530 _0107_
*531 _0108_
*532 _0109_
*533 _0110_
*534 _0111_
*535 _0112_
*536 _0113_
*537 _0114_
*538 _0115_
*539 _0116_
*540 _0117_
*541 _0118_
*542 _0119_
*543 _0120_
*544 _0121_
*545 _0122_
*546 _0123_
*547 _0124_
*548 _0125_
*549 _0126_
*550 _0127_
*551 _0128_
*552 _0129_
*553 _0130_
*554 _0131_
*555 _0132_
*556 _0133_
*557 _0134_
*558 _0135_
*559 _0136_
*560 _0137_
*561 _0138_
*562 _0139_
*563 _0140_
*564 _0141_
*565 _0142_
*566 _0143_
*567 _0144_
*568 _0145_
*569 _0146_
*570 _0147_
*571 _0148_
*572 _0149_
*573 _0150_
*574 _0151_
*575 _0152_
*576 _0153_
*577 _0154_
*578 _0155_
*579 _0156_
*580 _0157_
*581 _0158_
*582 _0159_
*583 _0160_
*584 _0161_
*585 _0162_
*586 _0163_
*587 _0164_
*588 _0165_
*589 _0166_
*590 _0167_
*591 _0168_
*592 _0169_
*593 _0170_
*594 _0171_
*595 _0172_
*596 _0173_
*597 _0174_
*598 _0175_
*599 _0176_
*600 _0177_
*601 _0178_
*602 _0179_
*603 _0180_
*604 _0181_
*605 _0182_
*606 _0183_
*607 _0184_
*608 _0185_
*609 _0186_
*610 _0187_
*611 _0188_
*612 _0189_
*613 _0190_
*614 _0191_
*615 _0192_
*616 _0193_
*617 _0194_
*618 _0195_
*619 _0196_
*620 _0197_
*621 _0198_
*622 _0199_
*623 _0200_
*624 _0201_
*625 _0202_
*626 _0203_
*627 _0204_
*628 _0205_
*629 _0206_
*630 _0207_
*631 _0208_
*632 _0209_
*633 _0210_
*634 _0211_
*635 _0212_
*636 _0213_
*637 _0214_
*638 _0215_
*639 _0216_
*640 _0217_
*641 _0218_
*642 _0219_
*643 _0220_
*644 _0221_
*645 _0222_
*646 _0223_
*647 _0224_
*648 _0225_
*649 _0226_
*650 _0227_
*651 _0228_
*652 _0229_
*653 _0230_
*654 _0231_
*655 _0232_
*656 _0233_
*657 _0234_
*658 _0235_
*659 _0236_
*660 _0237_
*661 _0238_
*662 _0239_
*663 _0240_
*664 _0241_
*665 _0242_
*666 _0243_
*667 _0244_
*668 _0245_
*669 _0246_
*670 _0247_
*671 _0248_
*672 _0249_
*673 _0250_
*674 _0251_
*675 _0252_
*676 _0253_
*677 _0254_
*678 _0255_
*679 _0256_
*680 _0257_
*681 _0258_
*682 _0259_
*683 _0260_
*684 _0261_
*685 _0262_
*686 _0263_
*687 _0264_
*688 _0265_
*689 _0266_
*690 _0267_
*691 _0268_
*692 _0269_
*693 _0270_
*694 _0271_
*695 _0272_
*696 _0273_
*697 _0274_
*698 _0275_
*699 _0276_
*700 _0277_
*701 _0278_
*702 _0279_
*703 _0280_
*704 _0281_
*705 _0282_
*706 _0283_
*707 _0284_
*708 _0285_
*709 _0286_
*710 _0287_
*711 _0288_
*712 _0289_
*713 _0290_
*714 _0291_
*715 _0292_
*716 _0293_
*717 _0294_
*718 _0295_
*719 _0296_
*720 _0297_
*721 _0298_
*722 _0299_
*723 _0300_
*724 _0301_
*725 _0302_
*726 _0303_
*727 _0304_
*728 _0305_
*729 _0306_
*730 _0307_
*731 _0308_
*732 _0309_
*733 _0310_
*734 _0311_
*735 _0312_
*736 _0313_
*737 _0314_
*738 _0315_
*739 _0316_
*740 _0317_
*741 _0318_
*742 _0319_
*743 _0320_
*744 _0321_
*745 _0322_
*746 _0323_
*747 _0324_
*748 _0325_
*749 _0326_
*750 _0327_
*751 _0328_
*752 _0329_
*753 _0330_
*754 _0331_
*755 _0332_
*756 _0333_
*757 _0334_
*758 _0335_
*759 _0336_
*760 _0337_
*761 _0338_
*762 _0339_
*763 _0340_
*764 _0341_
*765 _0342_
*766 _0343_
*767 _0344_
*768 _0345_
*769 _0346_
*770 _0347_
*771 _0348_
*772 _0349_
*773 _0350_
*774 _0351_
*775 _0352_
*776 _0353_
*777 _0354_
*778 _0355_
*779 _0356_
*780 _0357_
*781 _0358_
*782 _0359_
*783 _0360_
*784 _0361_
*785 _0362_
*786 _0363_
*787 _0364_
*788 _0365_
*789 _0366_
*790 _0367_
*791 _0368_
*792 _0369_
*793 _0370_
*794 _0371_
*795 _0372_
*796 _0373_
*797 _0374_
*798 _0375_
*799 _0376_
*800 _0377_
*801 _0378_
*802 _0379_
*803 _0380_
*804 _0381_
*805 _0382_
*806 _0383_
*807 _0384_
*808 _0385_
*809 _0386_
*810 _0387_
*811 _0388_
*812 _0389_
*813 _0390_
*814 _0391_
*815 _0392_
*816 _0393_
*817 _0394_
*818 _0395_
*819 _0396_
*820 _0397_
*821 _0398_
*822 _0399_
*823 _0400_
*824 _0401_
*825 _0402_
*826 _0403_
*827 _0404_
*828 _0405_
*829 _0406_
*830 _0407_
*831 _0408_
*832 _0409_
*833 _0410_
*834 _0411_
*835 _0412_
*836 _0413_
*837 _0414_
*838 _0415_
*839 _0416_
*840 _0417_
*841 _0418_
*842 _0419_
*843 _0420_
*844 _0421_
*845 _0422_
*846 _0423_
*847 _0424_
*848 _0425_
*849 _0426_
*850 _0427_
*851 _0428_
*852 _0429_
*853 _0430_
*854 _0431_
*855 _0432_
*856 _0433_
*857 _0434_
*858 _0435_
*859 _0436_
*860 _0437_
*861 _0438_
*862 _0439_
*863 _0440_
*864 _0441_
*865 _0442_
*866 _0443_
*867 _0444_
*868 _0445_
*869 _0446_
*870 _0447_
*871 _0448_
*872 _0449_
*873 _0450_
*874 _0451_
*875 _0452_
*876 _0453_
*877 _0454_
*878 _0455_
*879 _0456_
*880 _0457_
*881 _0458_
*882 _0459_
*883 _0460_
*884 _0461_
*885 _0462_
*886 _0463_
*887 _0464_
*888 _0465_
*889 _0466_
*890 _0467_
*891 _0468_
*892 _0469_
*893 _0470_
*894 _0471_
*895 _0472_
*896 _0473_
*897 _0474_
*898 _0475_
*899 _0476_
*900 _0477_
*901 _0478_
*902 _0479_
*903 _0480_
*904 _0481_
*905 _0482_
*906 _0483_
*907 _0484_
*908 _0485_
*909 _0486_
*910 _0487_
*911 _0488_
*912 _0489_
*913 _0490_
*914 _0491_
*915 _0492_
*916 _0493_
*917 _0494_
*918 _0495_
*919 _0496_
*920 _0497_
*921 _0498_
*922 _0499_
*923 _0500_
*924 _0501_
*925 _0502_
*926 _0503_
*927 _0504_
*928 _0505_
*929 _0506_
*930 _0507_
*931 _0508_
*932 _0509_
*933 _0510_
*934 _0511_
*935 _0512_
*936 _0513_
*937 _0514_
*938 _0515_
*939 _0516_
*940 _0517_
*941 _0518_
*942 _0519_
*943 _0520_
*944 _0521_
*945 _0522_
*946 _0523_
*947 _0524_
*948 _0525_
*949 _0526_
*950 _0527_
*951 _0528_
*952 _0529_
*953 _0530_
*954 _0531_
*955 _0532_
*956 _0533_
*957 _0534_
*958 _0535_
*959 _0536_
*960 _0537_
*961 _0538_
*962 _0539_
*963 _0540_
*964 _0541_
*965 _0542_
*966 _0543_
*967 _0544_
*968 _0545_
*969 _0546_
*970 _0547_
*971 _0548_
*972 _0549_
*973 _0550_
*974 _0551_
*975 _0552_
*976 _0553_
*977 _0554_
*978 _0555_
*979 _0556_
*980 _0557_
*981 _0558_
*982 _0559_
*983 _0560_
*984 _0561_
*985 _0562_
*986 _0563_
*987 _0564_
*988 _0565_
*989 _0566_
*990 _0567_
*991 _0568_
*992 _0569_
*993 _0570_
*994 _0571_
*995 _0572_
*996 _0573_
*997 _0574_
*998 _0575_
*999 _0576_
*1000 _0577_
*1001 _0578_
*1002 _0579_
*1003 _0580_
*1004 _0581_
*1005 _0582_
*1006 _0583_
*1007 _0584_
*1008 _0585_
*1009 _0586_
*1010 _0587_
*1011 _0588_
*1012 _0589_
*1013 _0590_
*1014 _0591_
*1015 _0592_
*1016 _0593_
*1017 _0594_
*1018 _0595_
*1019 _0596_
*1020 _0597_
*1021 _0598_
*1022 _0599_
*1023 _0600_
*1024 _0601_
*1025 _0602_
*1026 _0603_
*1027 _0604_
*1028 _0605_
*1029 _0606_
*1030 _0607_
*1031 _0608_
*1032 _0609_
*1033 _0610_
*1034 _0611_
*1035 _0612_
*1036 _0613_
*1037 _0614_
*1038 _0615_
*1039 _0616_
*1040 _0617_
*1041 _0618_
*1042 _0619_
*1043 _0620_
*1044 _0621_
*1045 _0622_
*1046 _0623_
*1047 _0624_
*1048 _0625_
*1049 _0626_
*1050 _0627_
*1051 _0628_
*1052 _0629_
*1053 _0630_
*1054 _0631_
*1055 _0632_
*1056 _0633_
*1057 _0634_
*1058 _0635_
*1059 _0636_
*1060 _0637_
*1061 _0638_
*1062 _0639_
*1063 _0640_
*1064 _0641_
*1065 _0642_
*1066 _0643_
*1067 _0644_
*1068 _0645_
*1069 _0646_
*1070 _0647_
*1071 _0648_
*1072 _0649_
*1073 _0650_
*1074 _0651_
*1075 _0652_
*1076 _0653_
*1077 _0654_
*1078 _0655_
*1079 _0656_
*1080 _0657_
*1081 _0658_
*1082 _0659_
*1083 _0660_
*1084 _0661_
*1085 _0662_
*1086 _0663_
*1087 _0664_
*1088 _0665_
*1089 _0666_
*1090 _0667_
*1091 _0668_
*1092 _0669_
*1093 _0670_
*1094 _0671_
*1095 _0672_
*1096 _0673_
*1097 _0674_
*1098 _0675_
*1099 _0676_
*1100 _0677_
*1101 _0678_
*1102 _0679_
*1103 _0680_
*1104 _0681_
*1105 _0682_
*1106 _0683_
*1107 _0684_
*1108 _0685_
*1109 _0686_
*1110 _0687_
*1111 _0688_
*1112 _0689_
*1113 _0690_
*1114 _0691_
*1115 _0692_
*1116 _0693_
*1117 _0694_
*1118 _0695_
*1119 _0696_
*1120 _0697_
*1121 _0698_
*1122 _0699_
*1123 _0700_
*1124 _0701_
*1125 _0702_
*1126 _0703_
*1127 _0704_
*1128 _0705_
*1129 _0706_
*1130 _0707_
*1131 _0708_
*1132 _0709_
*1133 _0710_
*1134 _0711_
*1135 _0712_
*1136 _0713_
*1137 _0714_
*1138 _0715_
*1139 _0716_
*1140 _0717_
*1141 _0718_
*1142 _0719_
*1143 _0720_
*1144 _0721_
*1145 _0722_
*1146 _0723_
*1147 _0724_
*1148 _0725_
*1149 _0726_
*1150 _0727_
*1151 _0728_
*1152 _0729_
*1153 _0730_
*1154 _0731_
*1155 _0732_
*1156 _0733_
*1157 _0734_
*1158 _0735_
*1159 _0736_
*1160 _0737_
*1161 _0738_
*1162 _0739_
*1163 _0740_
*1164 _0741_
*1165 _0742_
*1166 _0743_
*1167 _0744_
*1168 _0745_
*1169 _0746_
*1170 _0747_
*1171 _0748_
*1172 _0749_
*1173 _0750_
*1174 _0751_
*1175 _0752_
*1176 _0753_
*1177 _0754_
*1178 _0755_
*1179 _0756_
*1180 _0757_
*1181 _0758_
*1182 _0759_
*1183 _0760_
*1184 _0761_
*1185 _0762_
*1186 _0763_
*1187 _0764_
*1188 _0765_
*1189 _0766_
*1190 _0767_
*1191 _0768_
*1192 _0769_
*1193 _0770_
*1194 _0771_
*1195 _0772_
*1196 _0773_
*1197 _0774_
*1198 _0775_
*1199 _0776_
*1200 _0777_
*1201 _0778_
*1202 _0779_
*1203 _0780_
*1204 _0781_
*1205 _0782_
*1206 _0783_
*1207 _0784_
*1208 _0785_
*1209 _0786_
*1210 _0787_
*1211 _0788_
*1212 _0789_
*1213 _0790_
*1214 _0791_
*1215 _0792_
*1216 _0793_
*1217 _0794_
*1218 _0795_
*1219 _0796_
*1220 _0797_
*1221 _0798_
*1222 _0799_
*1223 _0800_
*1224 _0801_
*1225 _0802_
*1226 _0803_
*1227 _0804_
*1228 _0805_
*1229 _0806_
*1230 _0807_
*1231 _0808_
*1232 _0809_
*1233 _0810_
*1234 _0811_
*1235 _0812_
*1236 _0813_
*1237 _0814_
*1238 _0815_
*1239 _0816_
*1240 _0817_
*1241 _0818_
*1242 _0819_
*1243 _0820_
*1244 _0821_
*1245 _0822_
*1246 _0823_
*1247 _0824_
*1248 _0825_
*1249 _0826_
*1250 _0827_
*1251 _0828_
*1252 _0829_
*1253 _0830_
*1254 _0831_
*1255 _0832_
*1256 _0833_
*1257 _0834_
*1258 _0835_
*1259 _0836_
*1260 _0837_
*1261 _0838_
*1262 _0839_
*1263 _0840_
*1264 _0841_
*1265 _0842_
*1266 _0843_
*1267 _0844_
*1268 _0845_
*1269 _0846_
*1270 _0847_
*1271 _0848_
*1272 _0849_
*1273 _0850_
*1274 _0851_
*1275 _0852_
*1276 _0853_
*1277 _0854_
*1278 _0855_
*1279 _0856_
*1280 _0857_
*1281 _0858_
*1282 _0859_
*1283 _0860_
*1284 _0861_
*1285 _0862_
*1286 _0863_
*1287 _0864_
*1288 _0865_
*1289 _0866_
*1290 _0867_
*1291 _0868_
*1292 _0869_
*1293 _0870_
*1294 _0871_
*1295 _0872_
*1296 _0873_
*1297 _0874_
*1298 _0875_
*1299 _0876_
*1300 _0877_
*1301 _0878_
*1302 _0879_
*1303 _0880_
*1304 _0881_
*1305 _0882_
*1306 _0883_
*1307 _0884_
*1308 _0885_
*1309 _0886_
*1310 _0887_
*1311 _0888_
*1312 _0889_
*1313 _0890_
*1314 _0891_
*1315 _0892_
*1316 _0893_
*1317 _0894_
*1318 _0895_
*1319 _0896_
*1320 _0897_
*1321 _0898_
*1322 _0899_
*1323 _0900_
*1324 _0901_
*1325 _0902_
*1326 _0903_
*1327 _0904_
*1328 _0905_
*1329 _0906_
*1330 _0907_
*1331 _0908_
*1332 _0909_
*1333 _0910_
*1334 _0911_
*1335 _0912_
*1336 _0913_
*1337 _0914_
*1338 _0915_
*1339 _0916_
*1340 _0917_
*1341 _0918_
*1342 _0919_
*1343 _0920_
*1344 _0921_
*1345 _0922_
*1346 _0923_
*1347 _0924_
*1348 _0925_
*1349 _0926_
*1350 _0927_
*1351 _0928_
*1352 _0929_
*1353 _0930_
*1354 _0931_
*1355 _0932_
*1356 _0933_
*1357 _0934_
*1358 _0935_
*1359 _0936_
*1360 _0937_
*1361 _0938_
*1362 _0939_
*1363 _0940_
*1364 _0941_
*1365 _0942_
*1366 _0943_
*1367 _0944_
*1368 _0945_
*1369 _0946_
*1370 _0947_
*1371 _0948_
*1372 _0949_
*1373 _0950_
*1374 _0951_
*1375 _0952_
*1376 _0953_
*1377 _0954_
*1378 _0955_
*1379 _0956_
*1380 _0957_
*1381 _0958_
*1382 _0959_
*1383 _0960_
*1384 _0961_
*1385 _0962_
*1386 _0963_
*1387 _0964_
*1388 _0965_
*1389 _0966_
*1390 _0967_
*1391 _0968_
*1392 _0969_
*1393 _0970_
*1394 _0971_
*1395 _0972_
*1396 _0973_
*1397 _0974_
*1398 _0975_
*1399 _0976_
*1400 _0977_
*1401 _0978_
*1402 _0979_
*1403 _0980_
*1404 _0981_
*1405 _0982_
*1406 _0983_
*1407 _0984_
*1408 _0985_
*1409 _0986_
*1410 _0987_
*1411 _0988_
*1412 _0989_
*1413 _0990_
*1414 _0991_
*1415 _0992_
*1416 _0993_
*1417 _0994_
*1418 _0995_
*1419 _0996_
*1420 _0997_
*1421 _0998_
*1422 _0999_
*1423 _1000_
*1424 _1001_
*1425 _1002_
*1426 _1003_
*1427 _1004_
*1428 _1005_
*1429 _1006_
*1430 _1007_
*1431 _1008_
*1432 _1009_
*1433 _1010_
*1434 _1011_
*1435 _1012_
*1436 _1013_
*1437 _1014_
*1438 _1015_
*1439 _1016_
*1440 _1017_
*1441 _1018_
*1442 _1019_
*1443 _1020_
*1444 _1021_
*1445 _1022_
*1446 _1023_
*1447 _1024_
*1448 _1025_
*1449 _1026_
*1450 _1027_
*1451 _1028_
*1452 _1029_
*1453 _1030_
*1454 _1031_
*1455 _1032_
*1456 _1033_
*1457 _1034_
*1458 _1035_
*1459 _1036_
*1460 _1037_
*1461 _1038_
*1462 _1039_
*1463 _1040_
*1464 _1041_
*1465 _1042_
*1466 _1043_
*1467 _1044_
*1468 _1045_
*1469 _1046_
*1470 _1047_
*1471 _1048_
*1472 _1049_
*1473 _1050_
*1474 _1051_
*1475 _1052_
*1476 _1053_
*1477 _1054_
*1478 _1055_
*1479 _1056_
*1480 _1057_
*1481 _1058_
*1482 _1059_
*1483 _1060_
*1484 _1061_
*1485 _1062_
*1486 _1063_
*1487 _1064_
*1488 _1065_
*1489 _1066_
*1490 _1067_
*1491 _1068_
*1492 _1069_
*1493 _1070_
*1494 _1071_
*1495 _1072_
*1496 _1073_
*1497 _1074_
*1498 _1075_
*1499 _1076_
*1500 _1077_
*1501 _1078_
*1502 _1079_
*1503 _1080_
*1504 _1081_
*1505 _1082_
*1506 _1083_
*1507 _1084_
*1508 _1085_
*1509 _1086_
*1510 _1087_
*1511 _1088_
*1512 _1089_
*1513 _1090_
*1514 _1091_
*1515 _1092_
*1516 _1093_
*1517 _1094_
*1518 _1095_
*1519 _1096_
*1520 _1097_
*1521 _1098_
*1522 _1099_
*1523 _1100_
*1524 _1101_
*1525 _1102_
*1526 _1103_
*1527 _1104_
*1528 _1105_
*1529 _1106_
*1530 _1107_
*1531 _1108_
*1532 _1109_
*1533 _1110_
*1534 _1111_
*1535 _1112_
*1536 _1113_
*1537 _1114_
*1538 _1115_
*1539 _1116_
*1540 _1117_
*1541 _1118_
*1542 _1119_
*1543 _1120_
*1544 _1121_
*1545 _1122_
*1546 _1123_
*1547 _1124_
*1548 _1125_
*1549 _1126_
*1550 _1127_
*1551 _1128_
*1552 _1129_
*1553 _1130_
*1554 _1131_
*1555 _1132_
*1556 _1133_
*1557 _1134_
*1558 _1135_
*1559 _1136_
*1560 _1137_
*1561 _1138_
*1562 _1139_
*1563 _1140_
*1564 _1141_
*1565 _1142_
*1566 _1143_
*1567 _1144_
*1568 _1145_
*1569 _1146_
*1570 _1147_
*1571 _1148_
*1572 _1149_
*1573 _1150_
*1574 _1151_
*1575 _1152_
*1576 _1153_
*1577 _1154_
*1578 _1155_
*1579 _1156_
*1580 _1157_
*1581 _1158_
*1582 _1159_
*1583 _1160_
*1584 _1161_
*1585 _1162_
*1586 _1163_
*1587 _1164_
*1588 _1165_
*1589 _1166_
*1590 _1167_
*1591 _1168_
*1592 _1169_
*1593 _1170_
*1594 _1171_
*1595 _1172_
*1596 _1173_
*1597 _1174_
*1598 _1175_
*1599 _1176_
*1600 _1177_
*1601 _1178_
*1602 _1179_
*1603 _1180_
*1604 _1181_
*1605 _1182_
*1606 _1183_
*1607 _1184_
*1608 _1185_
*1609 _1186_
*1610 _1187_
*1611 _1188_
*1612 _1189_
*1613 _1190_
*1614 _1191_
*1615 _1192_
*1616 _1193_
*1617 _1194_
*1618 _1195_
*1619 _1196_
*1620 _1197_
*1621 _1198_
*1622 _1199_
*1623 _1200_
*1624 _1201_
*1625 _1202_
*1626 _1203_
*1627 _1204_
*1628 _1205_
*1629 _1206_
*1630 _1207_
*1631 _1208_
*1632 _1209_
*1633 _1210_
*1634 _1211_
*1635 _1212_
*1636 _1213_
*1637 _1214_
*1638 _1215_
*1639 _1216_
*1640 _1217_
*1641 _1218_
*1642 _1219_
*1643 _1220_
*1644 _1221_
*1645 _1222_
*1646 _1223_
*1647 _1224_
*1648 _1225_
*1649 _1226_
*1650 _1227_
*1651 _1228_
*1652 _1229_
*1653 _1230_
*1654 _1231_
*1655 _1232_
*1656 _1233_
*1657 _1234_
*1658 _1235_
*1659 _1236_
*1660 _1237_
*1661 _1238_
*1662 _1239_
*1663 _1240_
*1664 _1241_
*1665 _1242_
*1666 _1243_
*1667 _1244_
*1668 _1245_
*1669 _1246_
*1670 _1247_
*1671 _1248_
*1672 _1249_
*1673 _1250_
*1674 _1251_
*1675 _1252_
*1676 _1253_
*1677 _1254_
*1678 _1255_
*1679 _1256_
*1680 _1257_
*1681 _1258_
*1682 _1259_
*1683 _1260_
*1684 _1261_
*1685 _1262_
*1686 _1263_
*1687 _1264_
*1688 _1265_
*1689 _1266_
*1690 _1267_
*1691 _1268_
*1692 _1269_
*1693 _1270_
*1694 _1271_
*1695 _1272_
*1696 _1273_
*1697 _1274_
*1698 _1275_
*1699 _1276_
*1700 _1277_
*1701 _1278_
*1702 _1279_
*1703 _1280_
*1704 _1281_
*1705 _1282_
*1706 _1283_
*1707 _1284_
*1708 _1285_
*1709 _1286_
*1710 _1287_
*1711 _1288_
*1712 _1289_
*1713 _1290_
*1714 _1291_
*1715 _1292_
*1716 _1293_
*1717 _1294_
*1718 _1295_
*1719 _1296_
*1720 _1297_
*1721 _1298_
*1722 _1299_
*1723 _1300_
*1724 _1301_
*1725 _1302_
*1726 _1303_
*1727 _1304_
*1728 _1305_
*1729 _1306_
*1730 _1307_
*1731 _1308_
*1732 _1309_
*1733 _1310_
*1734 _1311_
*1735 _1312_
*1736 _1313_
*1737 _1314_
*1738 _1315_
*1739 _1316_
*1740 _1317_
*1741 _1318_
*1742 _1319_
*1743 _1320_
*1744 _1321_
*1745 _1322_
*1746 _1323_
*1747 _1324_
*1748 _1325_
*1749 _1326_
*1750 _1327_
*1751 _1328_
*1752 _1329_
*1753 _1330_
*1754 _1331_
*1755 _1332_
*1756 _1333_
*1757 _1334_
*1758 _1335_
*1759 _1336_
*1760 _1337_
*1761 _1338_
*1762 _1339_
*1763 _1340_
*1764 _1341_
*1765 _1342_
*1766 _1343_
*1767 _1344_
*1768 _1345_
*1769 _1346_
*1770 _1347_
*1771 _1348_
*1772 _1349_
*1773 _1350_
*1774 _1351_
*1775 _1352_
*1776 _1353_
*1777 _1354_
*1778 _1355_
*1779 _1356_
*1780 _1357_
*1781 _1358_
*1782 _1359_
*1783 _1360_
*1784 _1361_
*1785 _1362_
*1786 _1363_
*1787 _1364_
*1788 _1365_
*1789 _1366_
*1790 _1367_
*1791 _1368_
*1792 _1369_
*1793 _1370_
*1794 _1371_
*1795 _1372_
*1796 _1373_
*1797 _1374_
*1798 _1375_
*1799 _1376_
*1800 _1377_
*1801 _1378_
*1802 _1379_
*1803 _1380_
*1804 _1381_
*1805 _1382_
*1806 _1383_
*1807 _1384_
*1808 _1385_
*1809 clknet_0_clock
*1810 clknet_1_0__leaf_clock
*1811 clknet_1_1__leaf_clock
*1812 clknet_leaf_0_clock
*1813 clknet_leaf_10_clock
*1814 clknet_leaf_11_clock
*1815 clknet_leaf_12_clock
*1816 clknet_leaf_13_clock
*1817 clknet_leaf_14_clock
*1818 clknet_leaf_15_clock
*1819 clknet_leaf_16_clock
*1820 clknet_leaf_17_clock
*1821 clknet_leaf_18_clock
*1822 clknet_leaf_19_clock
*1823 clknet_leaf_1_clock
*1824 clknet_leaf_20_clock
*1825 clknet_leaf_2_clock
*1826 clknet_leaf_3_clock
*1827 clknet_leaf_4_clock
*1828 clknet_leaf_5_clock
*1829 clknet_leaf_6_clock
*1830 clknet_leaf_7_clock
*1831 clknet_leaf_8_clock
*1832 clknet_leaf_9_clock
*1833 clknet_opt_1_0_clock
*1834 dmem\.ack
*1835 dmem\.ack2
*1836 dmem\.rd_resp
*1837 dmem\.wb_select\[0\]
*1838 dmem\.wb_select\[1\]
*1839 dmem\.wb_select\[2\]
*1840 dmem\.wb_select\[3\]
*1841 dmem_sel
*1842 imem\.ack
*1843 imem\.bmem\.bmem_data\[0\]
*1844 imem\.bmem\.bmem_data\[10\]
*1845 imem\.bmem\.bmem_data\[11\]
*1846 imem\.bmem\.bmem_data\[12\]
*1847 imem\.bmem\.bmem_data\[13\]
*1848 imem\.bmem\.bmem_data\[14\]
*1849 imem\.bmem\.bmem_data\[15\]
*1850 imem\.bmem\.bmem_data\[16\]
*1851 imem\.bmem\.bmem_data\[17\]
*1852 imem\.bmem\.bmem_data\[18\]
*1853 imem\.bmem\.bmem_data\[19\]
*1854 imem\.bmem\.bmem_data\[20\]
*1855 imem\.bmem\.bmem_data\[21\]
*1856 imem\.bmem\.bmem_data\[22\]
*1857 imem\.bmem\.bmem_data\[23\]
*1858 imem\.bmem\.bmem_data\[24\]
*1859 imem\.bmem\.bmem_data\[25\]
*1860 imem\.bmem\.bmem_data\[26\]
*1861 imem\.bmem\.bmem_data\[28\]
*1862 imem\.bmem\.bmem_data\[29\]
*1863 imem\.bmem\.bmem_data\[2\]
*1864 imem\.bmem\.bmem_data\[3\]
*1865 imem\.bmem\.bmem_data\[4\]
*1866 imem\.bmem\.bmem_data\[5\]
*1867 imem\.bmem\.bmem_data\[6\]
*1868 imem\.bmem\.bmem_data\[7\]
*1869 imem\.bmem\.bmem_data\[8\]
*1870 imem\.bmem\.bmem_data\[9\]
*1871 imem\.bmem_ibus_sel
*1872 imem\.imem_ibus_valid
*1873 imem_sel
*1874 motor_sel
*1875 net1
*1876 net10
*1877 net100
*1878 net101
*1879 net102
*1880 net103
*1881 net104
*1882 net105
*1883 net106
*1884 net107
*1885 net108
*1886 net109
*1887 net11
*1888 net110
*1889 net111
*1890 net112
*1891 net113
*1892 net114
*1893 net115
*1894 net116
*1895 net117
*1896 net118
*1897 net119
*1898 net12
*1899 net120
*1900 net121
*1901 net122
*1902 net123
*1903 net124
*1904 net125
*1905 net126
*1906 net127
*1907 net128
*1908 net129
*1909 net13
*1910 net130
*1911 net131
*1912 net132
*1913 net133
*1914 net134
*1915 net135
*1916 net136
*1917 net137
*1918 net138