*SPEF "ieee 1481-1999"
*DESIGN "WBM_DBus"
*DATE "11:11:11 Fri 11 11, 1111"
*VENDOR "OpenRCX"
*PROGRAM "Parallel Extraction"
*VERSION "1.0"
*DESIGN_FLOW "NAME_SCOPE LOCAL" "PIN_CAP NONE"
*DIVIDER /
*DELIMITER :
*BUS_DELIMITER []
*T_UNIT 1 NS
*C_UNIT 1 PF
*R_UNIT 1 OHM
*L_UNIT 1 HENRY

*NAME_MAP
*1 io_dbus_addr[0]
*2 io_dbus_addr[10]
*3 io_dbus_addr[11]
*4 io_dbus_addr[12]
*5 io_dbus_addr[13]
*6 io_dbus_addr[14]
*7 io_dbus_addr[15]
*8 io_dbus_addr[16]
*9 io_dbus_addr[17]
*10 io_dbus_addr[18]
*11 io_dbus_addr[19]
*12 io_dbus_addr[1]
*13 io_dbus_addr[20]
*14 io_dbus_addr[21]
*15 io_dbus_addr[22]
*16 io_dbus_addr[23]
*17 io_dbus_addr[24]
*18 io_dbus_addr[25]
*19 io_dbus_addr[26]
*20 io_dbus_addr[27]
*21 io_dbus_addr[28]
*22 io_dbus_addr[29]
*23 io_dbus_addr[2]
*24 io_dbus_addr[30]
*25 io_dbus_addr[31]
*26 io_dbus_addr[3]
*27 io_dbus_addr[4]
*28 io_dbus_addr[5]
*29 io_dbus_addr[6]
*30 io_dbus_addr[7]
*31 io_dbus_addr[8]
*32 io_dbus_addr[9]
*33 io_dbus_ld_type[0]
*34 io_dbus_ld_type[1]
*35 io_dbus_ld_type[2]
*36 io_dbus_rd_en
*37 io_dbus_rdata[0]
*38 io_dbus_rdata[10]
*39 io_dbus_rdata[11]
*40 io_dbus_rdata[12]
*41 io_dbus_rdata[13]
*42 io_dbus_rdata[14]
*43 io_dbus_rdata[15]
*44 io_dbus_rdata[16]
*45 io_dbus_rdata[17]
*46 io_dbus_rdata[18]
*47 io_dbus_rdata[19]
*48 io_dbus_rdata[1]
*49 io_dbus_rdata[20]
*50 io_dbus_rdata[21]
*51 io_dbus_rdata[22]
*52 io_dbus_rdata[23]
*53 io_dbus_rdata[24]
*54 io_dbus_rdata[25]
*55 io_dbus_rdata[26]
*56 io_dbus_rdata[27]
*57 io_dbus_rdata[28]
*58 io_dbus_rdata[29]
*59 io_dbus_rdata[2]
*60 io_dbus_rdata[30]
*61 io_dbus_rdata[31]
*62 io_dbus_rdata[3]
*63 io_dbus_rdata[4]
*64 io_dbus_rdata[5]
*65 io_dbus_rdata[6]
*66 io_dbus_rdata[7]
*67 io_dbus_rdata[8]
*68 io_dbus_rdata[9]
*69 io_dbus_st_type[0]
*70 io_dbus_st_type[1]
*71 io_dbus_valid
*72 io_dbus_wdata[0]
*73 io_dbus_wdata[10]
*74 io_dbus_wdata[11]
*75 io_dbus_wdata[12]
*76 io_dbus_wdata[13]
*77 io_dbus_wdata[14]
*78 io_dbus_wdata[15]
*79 io_dbus_wdata[16]
*80 io_dbus_wdata[17]
*81 io_dbus_wdata[18]
*82 io_dbus_wdata[19]
*83 io_dbus_wdata[1]
*84 io_dbus_wdata[20]
*85 io_dbus_wdata[21]
*86 io_dbus_wdata[22]
*87 io_dbus_wdata[23]
*88 io_dbus_wdata[24]
*89 io_dbus_wdata[25]
*90 io_dbus_wdata[26]
*91 io_dbus_wdata[27]
*92 io_dbus_wdata[28]
*93 io_dbus_wdata[29]
*94 io_dbus_wdata[2]
*95 io_dbus_wdata[30]
*96 io_dbus_wdata[31]
*97 io_dbus_wdata[3]
*98 io_dbus_wdata[4]
*99 io_dbus_wdata[5]
*100 io_dbus_wdata[6]
*101 io_dbus_wdata[7]
*102 io_dbus_wdata[8]
*103 io_dbus_wdata[9]
*104 io_dbus_wr_en
*105 io_wbm_ack_i
*106 io_wbm_data_i[0]
*107 io_wbm_data_i[10]
*108 io_wbm_data_i[11]
*109 io_wbm_data_i[12]
*110 io_wbm_data_i[13]
*111 io_wbm_data_i[14]
*112 io_wbm_data_i[15]
*113 io_wbm_data_i[16]
*114 io_wbm_data_i[17]
*115 io_wbm_data_i[18]
*116 io_wbm_data_i[19]
*117 io_wbm_data_i[1]
*118 io_wbm_data_i[20]
*119 io_wbm_data_i[21]
*120 io_wbm_data_i[22]
*121 io_wbm_data_i[23]
*122 io_wbm_data_i[24]
*123 io_wbm_data_i[25]
*124 io_wbm_data_i[26]
*125 io_wbm_data_i[27]
*126 io_wbm_data_i[28]
*127 io_wbm_data_i[29]
*128 io_wbm_data_i[2]
*129 io_wbm_data_i[30]
*130 io_wbm_data_i[31]
*131 io_wbm_data_i[3]
*132 io_wbm_data_i[4]
*133 io_wbm_data_i[5]
*134 io_wbm_data_i[6]
*135 io_wbm_data_i[7]
*136 io_wbm_data_i[8]
*137 io_wbm_data_i[9]
*138 io_wbm_m2s_addr[0]
*139 io_wbm_m2s_addr[10]
*140 io_wbm_m2s_addr[11]
*141 io_wbm_m2s_addr[12]
*142 io_wbm_m2s_addr[13]
*143 io_wbm_m2s_addr[14]
*144 io_wbm_m2s_addr[15]
*145 io_wbm_m2s_addr[1]
*146 io_wbm_m2s_addr[2]
*147 io_wbm_m2s_addr[3]
*148 io_wbm_m2s_addr[4]
*149 io_wbm_m2s_addr[5]
*150 io_wbm_m2s_addr[6]
*151 io_wbm_m2s_addr[7]
*152 io_wbm_m2s_addr[8]
*153 io_wbm_m2s_addr[9]
*154 io_wbm_m2s_data[0]
*155 io_wbm_m2s_data[10]
*156 io_wbm_m2s_data[11]
*157 io_wbm_m2s_data[12]
*158 io_wbm_m2s_data[13]
*159 io_wbm_m2s_data[14]
*160 io_wbm_m2s_data[15]
*161 io_wbm_m2s_data[16]
*162 io_wbm_m2s_data[17]
*163 io_wbm_m2s_data[18]
*164 io_wbm_m2s_data[19]
*165 io_wbm_m2s_data[1]
*166 io_wbm_m2s_data[20]
*167 io_wbm_m2s_data[21]
*168 io_wbm_m2s_data[22]
*169 io_wbm_m2s_data[23]
*170 io_wbm_m2s_data[24]
*171 io_wbm_m2s_data[25]
*172 io_wbm_m2s_data[26]
*173 io_wbm_m2s_data[27]
*174 io_wbm_m2s_data[28]
*175 io_wbm_m2s_data[29]
*176 io_wbm_m2s_data[2]
*177 io_wbm_m2s_data[30]
*178 io_wbm_m2s_data[31]
*179 io_wbm_m2s_data[3]
*180 io_wbm_m2s_data[4]
*181 io_wbm_m2s_data[5]
*182 io_wbm_m2s_data[6]
*183 io_wbm_m2s_data[7]
*184 io_wbm_m2s_data[8]
*185 io_wbm_m2s_data[9]
*186 io_wbm_m2s_sel[0]
*187 io_wbm_m2s_sel[1]
*188 io_wbm_m2s_sel[2]
*189 io_wbm_m2s_sel[3]
*190 io_wbm_m2s_stb
*191 io_wbm_m2s_we
*194 _000_
*195 _001_
*196 _002_
*197 _003_
*198 _004_
*199 _005_
*200 _006_
*201 _007_
*202 _008_
*203 _009_
*204 _010_
*205 net1
*206 net10
*207 net100
*208 net101
*209 net102
*210 net103
*211 net104
*212 net105
*213 net106
*214 net107
*215 net108
*216 net109
*217 net11
*218 net110
*219 net111
*220 net112
*221 net113
*222 net114
*223 net115
*224 net116
*225 net117
*226 net118
*227 net119
*228 net12
*229 net120
*230 net121
*231 net122
*232 net123
*233 net124
*234 net125
*235 net126
*236 net127
*237 net128
*238 net129
*239 net13
*240 net130
*241 net131
*242 net132
*243 net133
*244 net134
*245 net135
*246 net136
*247 net137
*248 net138
*249 net139
*250 net14
*251 net140
*252 net141
*253 net142
*254 net143
*255 net144
*256 net145
*257 net146
*258 net147
*259 net148
*260 net149
*261 net15
*262 net150
*263 net151
*264 net152
*265 net153
*266 net154
*267 net155
*268 net156
*269 net157
*270 net158
*271 net159
*272 net16
*273 net160
*274 net161
*275 net162
*276 net163
*277 net164
*278 net165
*279 net166
*280 net167
*281 net168
*282 net169
*283 net17
*284 net170
*285 net171
*286 net172
*287 net173
*288 net174
*289 net175
*290 net18
*291 net19
*292 net2
*293 net20
*294 net21
*295 net22
*296 net23
*297 net24
*298 net25
*299 net26
*300 net27
*301 net28
*302 net29
*303 net3
*304 net30
*305 net31
*306 net32
*307 net33
*308 net34
*309 net35
*310 net36
*311 net37
*312 net38
*313 net39
*314 net4
*315 net40
*316 net41
*317 net42
*318 net43
*319 net44
*320 net45
*321 net46
*322 net47
*323 net48
*324 net49
*325 net5
*326 net50
*327 net51
*328 net52
*329 net53
*330 net54
*331 net55
*332 net56
*333 net57
*334 net58
*335 net59
*336 net6
*337 net60
*338 net61
*339 net62
*340 net63
*341 net64
*342 net65
*343 net66
*344 net67
*345 net68
*346 net69
*347 net7
*348 net70
*349 net71
*350 net72
*351 net73
*352 net74
*353 net75
*354 net76
*355 net77
*356 net78
*357 net79
*358 net8
*359 net80
*360 net81
*361 net82
*362 net83
*363 net84
*364 net85
*365 net86
*366 net87
*367 net88
*368 net89
*369 net9
*370 net90
*371 net91
*372 net92
*373 net93
*374 net94
*375 net95
*376 net96
*377 net97
*378 net98
*379 net99
*380 ANTENNA__011__A
*381 ANTENNA__012__A
*382 ANTENNA__012__B
*383 ANTENNA__013__B
*384 ANTENNA__014__A
*385 ANTENNA__014__B
*386 ANTENNA__015__B1
*387 ANTENNA__016__C1
*388 ANTENNA__017__A
*389 ANTENNA__019__A
*390 ANTENNA__019__B
*391 ANTENNA__020__A1
*392 ANTENNA__021__A
*393 ANTENNA__022__B1_N
*394 ANTENNA__023__A
*395 ANTENNA__024__B1_N
*396 ANTENNA__027__A
*397 ANTENNA__029__A
*398 ANTENNA__030__A
*399 ANTENNA__032__A
*400 ANTENNA__035__A
*401 ANTENNA__039__A
*402 ANTENNA__040__A
*403 ANTENNA__043__A
*404 ANTENNA__049__A
*405 ANTENNA__050__A
*406 ANTENNA__060__A
*407 ANTENNA__061__A
*408 ANTENNA__076__A
*409 ANTENNA__078__A
*410 ANTENNA__083__A
*411 ANTENNA__084__A
*412 ANTENNA__091__A
*413 ANTENNA__093__A
*414 ANTENNA__105__A
*415 ANTENNA__106__A
*416 ANTENNA_input10_A
*417 ANTENNA_input11_A
*418 ANTENNA_input12_A
*419 ANTENNA_input13_A
*420 ANTENNA_input14_A
*421 ANTENNA_input15_A
*422 ANTENNA_input16_A
*423 ANTENNA_input17_A
*424 ANTENNA_input18_A
*425 ANTENNA_input19_A
*426 ANTENNA_input1_A
*427 ANTENNA_input20_A
*428 ANTENNA_input21_A
*429 ANTENNA_input22_A
*430 ANTENNA_input23_A
*431 ANTENNA_input24_A
*432 ANTENNA_input25_A
*433 ANTENNA_input26_A
*434 ANTENNA_input27_A
*435 ANTENNA_input28_A
*436 ANTENNA_input29_A
*437 ANTENNA_input2_A
*438 ANTENNA_input30_A
*439 ANTENNA_input31_A
*440 ANTENNA_input32_A
*441 ANTENNA_input33_A
*442 ANTENNA_input34_A
*443 ANTENNA_input35_A
*444 ANTENNA_input36_A
*445 ANTENNA_input37_A
*446 ANTENNA_input38_A
*447 ANTENNA_input39_A
*448 ANTENNA_input3_A
*449 ANTENNA_input40_A
*450 ANTENNA_input41_A
*451 ANTENNA_input42_A
*452 ANTENNA_input43_A
*453 ANTENNA_input44_A
*454 ANTENNA_input45_A
*455 ANTENNA_input46_A
*456 ANTENNA_input47_A
*457 ANTENNA_input48_A
*458 ANTENNA_input49_A
*459 ANTENNA_input4_A
*460 ANTENNA_input50_A
*461 ANTENNA_input51_A
*462 ANTENNA_input52_A
*463 ANTENNA_input53_A
*464 ANTENNA_input54_A
*465 ANTENNA_input55_A
*466 ANTENNA_input56_A
*467 ANTENNA_input57_A
*468 ANTENNA_input58_A
*469 ANTENNA_input59_A
*470 ANTENNA_input5_A
*471 ANTENNA_input60_A
*472 ANTENNA_input61_A
*473 ANTENNA_input62_A
*474 ANTENNA_input63_A
*475 ANTENNA_input64_A
*476 ANTENNA_input65_A
*477 ANTENNA_input66_A
*478 ANTENNA_input67_A
*479 ANTENNA_input68_A
*480 ANTENNA_input69_A
*481 ANTENNA_input6_A
*482 ANTENNA_input70_A
*483 ANTENNA_input71_A
*484 ANTENNA_input72_A
*485 ANTENNA_input73_A
*486 ANTENNA_input74_A
*487 ANTENNA_input75_A
*488 ANTENNA_input76_A
*489 ANTENNA_input77_A
*490 ANTENNA_input78_A
*491 ANTENNA_input79_A
*492 ANTENNA_input7_A
*493 ANTENNA_input80_A
*494 ANTENNA_input81_A
*495 ANTENNA_input82_A
*496 ANTENNA_input83_A
*497 ANTENNA_input84_A
*498 ANTENNA_input85_A
*499 ANTENNA_input86_A
*500 ANTENNA_input87_A
*501 ANTENNA_input88_A
*502 ANTENNA_input8_A
*503 ANTENNA_input9_A
*504 ANTENNA_output107_A
*505 ANTENNA_output109_A
*506 ANTENNA_output111_A
*507 ANTENNA_output114_A
*508 ANTENNA_output116_A
*509 ANTENNA_output119_A
*510 ANTENNA_output122_A
*511 ANTENNA_output124_A
*512 ANTENNA_output126_A
*513 ANTENNA_output127_A
*514 ANTENNA_output129_A
*515 ANTENNA_output135_A
*516 ANTENNA_output136_A
*517 ANTENNA_output139_A
*518 ANTENNA_output146_A
*519 ANTENNA_output150_A
*520 ANTENNA_output159_A
*521 ANTENNA_output161_A
*522 ANTENNA_output165_A
*523 ANTENNA_output167_A
*524 ANTENNA_output168_A
*525 ANTENNA_output170_A
*526 ANTENNA_output171_A
*527 ANTENNA_output172_A
*528 ANTENNA_output173_A
*529 ANTENNA_output174_A
*530 ANTENNA_output89_A
*531 ANTENNA_output92_A
*532 ANTENNA_output95_A
*533 ANTENNA_output96_A
*534 ANTENNA_output99_A
*535 FILLER_0_103
*536 FILLER_0_110
*537 FILLER_0_113
*538 FILLER_0_119
*539 FILLER_0_126
*540 FILLER_0_13
*541 FILLER_0_138
*542 FILLER_0_141
*543 FILLER_0_147
*544 FILLER_0_153
*545 FILLER_0_157
*546 FILLER_0_161
*547 FILLER_0_166
*548 FILLER_0_173
*549 FILLER_0_177
*550 FILLER_0_182
*551 FILLER_0_19
*552 FILLER_0_194
*553 FILLER_0_207
*554 FILLER_0_213
*555 FILLER_0_217
*556 FILLER_0_223
*557 FILLER_0_229
*558 FILLER_0_233
*559 FILLER_0_238
*560 FILLER_0_244
*561 FILLER_0_248
*562 FILLER_0_25
*563 FILLER_0_257
*564 FILLER_0_261
*565 FILLER_0_266
*566 FILLER_0_274
*567 FILLER_0_278
*568 FILLER_0_291
*569 FILLER_0_297
*570 FILLER_0_302
*571 FILLER_0_306
*572 FILLER_0_319
*573 FILLER_0_325
*574 FILLER_0_329
*575 FILLER_0_334
*576 FILLER_0_337
*577 FILLER_0_344
*578 FILLER_0_350
*579 FILLER_0_362
*580 FILLER_0_39
*581 FILLER_0_51
*582 FILLER_0_55
*583 FILLER_0_67
*584 FILLER_0_73
*585 FILLER_0_77
*586 FILLER_0_82
*587 FILLER_0_85
*588 FILLER_0_97
*589 FILLER_10_109
*590 FILLER_10_121
*591 FILLER_10_133
*592 FILLER_10_139
*593 FILLER_10_141
*594 FILLER_10_153
*595 FILLER_10_165
*596 FILLER_10_177
*597 FILLER_10_189
*598 FILLER_10_19
*599 FILLER_10_195
*600 FILLER_10_197
*601 FILLER_10_209
*602 FILLER_10_221
*603 FILLER_10_233
*604 FILLER_10_245
*605 FILLER_10_251
*606 FILLER_10_253
*607 FILLER_10_265
*608 FILLER_10_27
*609 FILLER_10_277
*610 FILLER_10_289
*611 FILLER_10_29
*612 FILLER_10_301
*613 FILLER_10_307
*614 FILLER_10_309
*615 FILLER_10_321
*616 FILLER_10_333
*617 FILLER_10_345
*618 FILLER_10_357
*619 FILLER_10_362
*620 FILLER_10_41
*621 FILLER_10_53
*622 FILLER_10_65
*623 FILLER_10_7
*624 FILLER_10_77
*625 FILLER_10_83
*626 FILLER_10_85
*627 FILLER_10_97
*628 FILLER_11_105
*629 FILLER_11_111
*630 FILLER_11_113
*631 FILLER_11_125
*632 FILLER_11_137
*633 FILLER_11_149
*634 FILLER_11_15
*635 FILLER_11_161
*636 FILLER_11_167
*637 FILLER_11_169
*638 FILLER_11_181
*639 FILLER_11_193
*640 FILLER_11_205
*641 FILLER_11_217
*642 FILLER_11_223
*643 FILLER_11_225
*644 FILLER_11_237
*645 FILLER_11_249
*646 FILLER_11_261
*647 FILLER_11_27
*648 FILLER_11_273
*649 FILLER_11_279
*650 FILLER_11_281
*651 FILLER_11_293
*652 FILLER_11_3
*653 FILLER_11_305
*654 FILLER_11_317
*655 FILLER_11_329
*656 FILLER_11_335
*657 FILLER_11_337
*658 FILLER_11_349
*659 FILLER_11_353
*660 FILLER_11_356
*661 FILLER_11_362
*662 FILLER_11_39
*663 FILLER_11_51
*664 FILLER_11_55
*665 FILLER_11_57
*666 FILLER_11_69
*667 FILLER_11_81
*668 FILLER_11_93
*669 FILLER_12_109
*670 FILLER_12_11
*671 FILLER_12_121
*672 FILLER_12_133
*673 FILLER_12_139
*674 FILLER_12_141
*675 FILLER_12_153
*676 FILLER_12_165
*677 FILLER_12_177
*678 FILLER_12_189
*679 FILLER_12_195
*680 FILLER_12_197
*681 FILLER_12_209
*682 FILLER_12_221
*683 FILLER_12_23
*684 FILLER_12_233
*685 FILLER_12_245
*686 FILLER_12_251
*687 FILLER_12_253
*688 FILLER_12_265
*689 FILLER_12_27
*690 FILLER_12_277
*691 FILLER_12_289
*692 FILLER_12_29
*693 FILLER_12_301
*694 FILLER_12_307
*695 FILLER_12_309
*696 FILLER_12_321
*697 FILLER_12_333
*698 FILLER_12_345
*699 FILLER_12_353
*700 FILLER_12_356
*701 FILLER_12_362
*702 FILLER_12_41
*703 FILLER_12_53
*704 FILLER_12_65
*705 FILLER_12_7
*706 FILLER_12_77
*707 FILLER_12_83
*708 FILLER_12_85
*709 FILLER_12_97
*710 FILLER_13_105
*711 FILLER_13_111
*712 FILLER_13_113
*713 FILLER_13_125
*714 FILLER_13_137
*715 FILLER_13_149
*716 FILLER_13_15
*717 FILLER_13_161
*718 FILLER_13_167
*719 FILLER_13_169
*720 FILLER_13_181
*721 FILLER_13_186
*722 FILLER_13_190
*723 FILLER_13_202
*724 FILLER_13_214
*725 FILLER_13_222
*726 FILLER_13_225
*727 FILLER_13_237
*728 FILLER_13_249
*729 FILLER_13_261
*730 FILLER_13_27
*731 FILLER_13_273
*732 FILLER_13_279
*733 FILLER_13_281
*734 FILLER_13_293
*735 FILLER_13_3
*736 FILLER_13_305
*737 FILLER_13_317
*738 FILLER_13_329
*739 FILLER_13_335
*740 FILLER_13_337
*741 FILLER_13_349
*742 FILLER_13_361
*743 FILLER_13_39
*744 FILLER_13_51
*745 FILLER_13_55
*746 FILLER_13_57
*747 FILLER_13_69
*748 FILLER_13_81
*749 FILLER_13_93
*750 FILLER_14_109
*751 FILLER_14_121
*752 FILLER_14_133
*753 FILLER_14_139
*754 FILLER_14_141
*755 FILLER_14_15
*756 FILLER_14_153
*757 FILLER_14_165
*758 FILLER_14_173
*759 FILLER_14_180
*760 FILLER_14_192
*761 FILLER_14_197
*762 FILLER_14_209
*763 FILLER_14_221
*764 FILLER_14_233
*765 FILLER_14_245
*766 FILLER_14_251
*767 FILLER_14_253
*768 FILLER_14_265
*769 FILLER_14_27
*770 FILLER_14_277
*771 FILLER_14_289
*772 FILLER_14_29
*773 FILLER_14_3
*774 FILLER_14_301
*775 FILLER_14_307
*776 FILLER_14_309
*777 FILLER_14_321
*778 FILLER_14_333
*779 FILLER_14_345
*780 FILLER_14_353
*781 FILLER_14_357
*782 FILLER_14_362
*783 FILLER_14_41
*784 FILLER_14_53
*785 FILLER_14_65
*786 FILLER_14_77
*787 FILLER_14_83
*788 FILLER_14_85
*789 FILLER_14_97
*790 FILLER_15_10
*791 FILLER_15_105
*792 FILLER_15_111
*793 FILLER_15_113
*794 FILLER_15_125
*795 FILLER_15_137
*796 FILLER_15_149
*797 FILLER_15_161
*798 FILLER_15_167
*799 FILLER_15_169
*800 FILLER_15_181
*801 FILLER_15_193
*802 FILLER_15_205
*803 FILLER_15_217
*804 FILLER_15_22
*805 FILLER_15_223
*806 FILLER_15_225
*807 FILLER_15_237
*808 FILLER_15_249
*809 FILLER_15_261
*810 FILLER_15_273
*811 FILLER_15_279
*812 FILLER_15_281
*813 FILLER_15_293
*814 FILLER_15_305
*815 FILLER_15_317
*816 FILLER_15_329
*817 FILLER_15_335
*818 FILLER_15_337
*819 FILLER_15_34
*820 FILLER_15_349
*821 FILLER_15_361
*822 FILLER_15_46
*823 FILLER_15_54
*824 FILLER_15_57
*825 FILLER_15_6
*826 FILLER_15_69
*827 FILLER_15_81
*828 FILLER_15_93
*829 FILLER_16_109
*830 FILLER_16_121
*831 FILLER_16_133
*832 FILLER_16_139
*833 FILLER_16_141
*834 FILLER_16_153
*835 FILLER_16_165
*836 FILLER_16_17
*837 FILLER_16_177
*838 FILLER_16_189
*839 FILLER_16_195
*840 FILLER_16_197
*841 FILLER_16_209
*842 FILLER_16_221
*843 FILLER_16_233
*844 FILLER_16_245
*845 FILLER_16_25
*846 FILLER_16_251
*847 FILLER_16_253
*848 FILLER_16_265
*849 FILLER_16_277
*850 FILLER_16_289
*851 FILLER_16_29
*852 FILLER_16_301
*853 FILLER_16_307
*854 FILLER_16_309
*855 FILLER_16_321
*856 FILLER_16_333
*857 FILLER_16_345
*858 FILLER_16_357
*859 FILLER_16_363
*860 FILLER_16_41
*861 FILLER_16_5
*862 FILLER_16_53
*863 FILLER_16_65
*864 FILLER_16_77
*865 FILLER_16_83
*866 FILLER_16_85
*867 FILLER_16_97
*868 FILLER_17_105
*869 FILLER_17_111
*870 FILLER_17_113
*871 FILLER_17_125
*872 FILLER_17_13
*873 FILLER_17_137
*874 FILLER_17_149
*875 FILLER_17_161
*876 FILLER_17_167
*877 FILLER_17_169
*878 FILLER_17_181
*879 FILLER_17_186
*880 FILLER_17_198
*881 FILLER_17_210
*882 FILLER_17_222
*883 FILLER_17_225
*884 FILLER_17_237
*885 FILLER_17_249
*886 FILLER_17_25
*887 FILLER_17_261
*888 FILLER_17_273
*889 FILLER_17_279
*890 FILLER_17_281
*891 FILLER_17_293
*892 FILLER_17_305
*893 FILLER_17_317
*894 FILLER_17_329
*895 FILLER_17_335
*896 FILLER_17_337
*897 FILLER_17_349
*898 FILLER_17_357
*899 FILLER_17_362
*900 FILLER_17_37
*901 FILLER_17_49
*902 FILLER_17_55
*903 FILLER_17_57
*904 FILLER_17_69
*905 FILLER_17_81
*906 FILLER_17_93
*907 FILLER_18_109
*908 FILLER_18_121
*909 FILLER_18_133
*910 FILLER_18_139
*911 FILLER_18_141
*912 FILLER_18_15
*913 FILLER_18_153
*914 FILLER_18_165
*915 FILLER_18_177
*916 FILLER_18_189
*917 FILLER_18_195
*918 FILLER_18_197
*919 FILLER_18_209
*920 FILLER_18_221
*921 FILLER_18_233
*922 FILLER_18_245
*923 FILLER_18_251
*924 FILLER_18_253
*925 FILLER_18_265
*926 FILLER_18_27
*927 FILLER_18_277
*928 FILLER_18_289
*929 FILLER_18_29
*930 FILLER_18_3
*931 FILLER_18_301
*932 FILLER_18_307
*933 FILLER_18_309
*934 FILLER_18_321
*935 FILLER_18_333
*936 FILLER_18_345
*937 FILLER_18_357
*938 FILLER_18_363
*939 FILLER_18_41
*940 FILLER_18_53
*941 FILLER_18_65
*942 FILLER_18_77
*943 FILLER_18_83
*944 FILLER_18_85
*945 FILLER_18_97
*946 FILLER_19_105
*947 FILLER_19_11
*948 FILLER_19_111
*949 FILLER_19_113
*950 FILLER_19_125
*951 FILLER_19_137
*952 FILLER_19_149
*953 FILLER_19_161
*954 FILLER_19_167
*955 FILLER_19_169
*956 FILLER_19_181
*957 FILLER_19_193
*958 FILLER_19_205
*959 FILLER_19_217
*960 FILLER_19_223
*961 FILLER_19_225
*962 FILLER_19_23
*963 FILLER_19_237
*964 FILLER_19_249
*965 FILLER_19_261
*966 FILLER_19_273
*967 FILLER_19_279
*968 FILLER_19_281
*969 FILLER_19_293
*970 FILLER_19_305
*971 FILLER_19_317
*972 FILLER_19_329
*973 FILLER_19_335
*974 FILLER_19_337
*975 FILLER_19_349
*976 FILLER_19_35
*977 FILLER_19_353
*978 FILLER_19_356
*979 FILLER_19_362
*980 FILLER_19_47
*981 FILLER_19_55
*982 FILLER_19_57
*983 FILLER_19_69
*984 FILLER_19_7
*985 FILLER_19_81
*986 FILLER_19_93
*987 FILLER_1_101
*988 FILLER_1_109
*989 FILLER_1_113
*990 FILLER_1_117
*991 FILLER_1_121
*992 FILLER_1_129
*993 FILLER_1_13
*994 FILLER_1_134
*995 FILLER_1_139
*996 FILLER_1_145
*997 FILLER_1_149
*998 FILLER_1_161
*999 FILLER_1_167
*1000 FILLER_1_169
*1001 FILLER_1_175
*1002 FILLER_1_180
*1003 FILLER_1_186
*1004 FILLER_1_19
*1005 FILLER_1_192
*1006 FILLER_1_197
*1007 FILLER_1_203
*1008 FILLER_1_208
*1009 FILLER_1_220
*1010 FILLER_1_225
*1011 FILLER_1_23
*1012 FILLER_1_230
*1013 FILLER_1_234
*1014 FILLER_1_238
*1015 FILLER_1_250
*1016 FILLER_1_254
*1017 FILLER_1_259
*1018 FILLER_1_263
*1019 FILLER_1_27
*1020 FILLER_1_275
*1021 FILLER_1_279
*1022 FILLER_1_281
*1023 FILLER_1_287
*1024 FILLER_1_291
*1025 FILLER_1_303
*1026 FILLER_1_309
*1027 FILLER_1_314
*1028 FILLER_1_318
*1029 FILLER_1_326
*1030 FILLER_1_330
*1031 FILLER_1_334
*1032 FILLER_1_337
*1033 FILLER_1_343
*1034 FILLER_1_35
*1035 FILLER_1_350
*1036 FILLER_1_362
*1037 FILLER_1_41
*1038 FILLER_1_49
*1039 FILLER_1_54
*1040 FILLER_1_57
*1041 FILLER_1_63
*1042 FILLER_1_71
*1043 FILLER_1_76
*1044 FILLER_1_80
*1045 FILLER_1_85
*1046 FILLER_1_89
*1047 FILLER_20_109
*1048 FILLER_20_121
*1049 FILLER_20_13
*1050 FILLER_20_133
*1051 FILLER_20_139
*1052 FILLER_20_141
*1053 FILLER_20_153
*1054 FILLER_20_165
*1055 FILLER_20_177
*1056 FILLER_20_189
*1057 FILLER_20_195
*1058 FILLER_20_197
*1059 FILLER_20_209
*1060 FILLER_20_221
*1061 FILLER_20_233
*1062 FILLER_20_245
*1063 FILLER_20_25
*1064 FILLER_20_251
*1065 FILLER_20_253
*1066 FILLER_20_265
*1067 FILLER_20_277
*1068 FILLER_20_289
*1069 FILLER_20_29
*1070 FILLER_20_3
*1071 FILLER_20_301
*1072 FILLER_20_307
*1073 FILLER_20_309
*1074 FILLER_20_321
*1075 FILLER_20_333
*1076 FILLER_20_345
*1077 FILLER_20_353
*1078 FILLER_20_356
*1079 FILLER_20_362
*1080 FILLER_20_41
*1081 FILLER_20_53
*1082 FILLER_20_65
*1083 FILLER_20_77
*1084 FILLER_20_83
*1085 FILLER_20_85
*1086 FILLER_20_9
*1087 FILLER_20_97
*1088 FILLER_21_105
*1089 FILLER_21_111
*1090 FILLER_21_113
*1091 FILLER_21_125
*1092 FILLER_21_137
*1093 FILLER_21_149
*1094 FILLER_21_15
*1095 FILLER_21_161
*1096 FILLER_21_167
*1097 FILLER_21_169
*1098 FILLER_21_181
*1099 FILLER_21_193
*1100 FILLER_21_205
*1101 FILLER_21_217
*1102 FILLER_21_223
*1103 FILLER_21_225
*1104 FILLER_21_237
*1105 FILLER_21_249
*1106 FILLER_21_261
*1107 FILLER_21_27
*1108 FILLER_21_273
*1109 FILLER_21_279
*1110 FILLER_21_281
*1111 FILLER_21_293
*1112 FILLER_21_3
*1113 FILLER_21_305
*1114 FILLER_21_317
*1115 FILLER_21_329
*1116 FILLER_21_335
*1117 FILLER_21_337
*1118 FILLER_21_349
*1119 FILLER_21_362
*1120 FILLER_21_39
*1121 FILLER_21_51
*1122 FILLER_21_55
*1123 FILLER_21_57
*1124 FILLER_21_69
*1125 FILLER_21_81
*1126 FILLER_21_93
*1127 FILLER_22_109
*1128 FILLER_22_121
*1129 FILLER_22_133
*1130 FILLER_22_139
*1131 FILLER_22_141
*1132 FILLER_22_153
*1133 FILLER_22_165
*1134 FILLER_22_177
*1135 FILLER_22_189
*1136 FILLER_22_19
*1137 FILLER_22_195
*1138 FILLER_22_197
*1139 FILLER_22_209
*1140 FILLER_22_221
*1141 FILLER_22_233
*1142 FILLER_22_245
*1143 FILLER_22_251
*1144 FILLER_22_253
*1145 FILLER_22_265
*1146 FILLER_22_27
*1147 FILLER_22_277
*1148 FILLER_22_289
*1149 FILLER_22_29
*1150 FILLER_22_301
*1151 FILLER_22_307
*1152 FILLER_22_309
*1153 FILLER_22_321
*1154 FILLER_22_333
*1155 FILLER_22_345
*1156 FILLER_22_353
*1157 FILLER_22_357
*1158 FILLER_22_362
*1159 FILLER_22_41
*1160 FILLER_22_53
*1161 FILLER_22_65
*1162 FILLER_22_7
*1163 FILLER_22_77
*1164 FILLER_22_83
*1165 FILLER_22_85
*1166 FILLER_22_97
*1167 FILLER_23_105
*1168 FILLER_23_111
*1169 FILLER_23_113
*1170 FILLER_23_125
*1171 FILLER_23_137
*1172 FILLER_23_149
*1173 FILLER_23_15
*1174 FILLER_23_161
*1175 FILLER_23_167
*1176 FILLER_23_169
*1177 FILLER_23_181
*1178 FILLER_23_186
*1179 FILLER_23_192
*1180 FILLER_23_196
*1181 FILLER_23_208
*1182 FILLER_23_220
*1183 FILLER_23_225
*1184 FILLER_23_237
*1185 FILLER_23_249
*1186 FILLER_23_261
*1187 FILLER_23_27
*1188 FILLER_23_273
*1189 FILLER_23_279
*1190 FILLER_23_281
*1191 FILLER_23_293
*1192 FILLER_23_3
*1193 FILLER_23_305
*1194 FILLER_23_317
*1195 FILLER_23_329
*1196 FILLER_23_335
*1197 FILLER_23_337
*1198 FILLER_23_349
*1199 FILLER_23_360
*1200 FILLER_23_39
*1201 FILLER_23_51
*1202 FILLER_23_55
*1203 FILLER_23_57
*1204 FILLER_23_69
*1205 FILLER_23_81
*1206 FILLER_23_93
*1207 FILLER_24_10
*1208 FILLER_24_109
*1209 FILLER_24_121
*1210 FILLER_24_133
*1211 FILLER_24_139
*1212 FILLER_24_141
*1213 FILLER_24_153
*1214 FILLER_24_165
*1215 FILLER_24_177
*1216 FILLER_24_189
*1217 FILLER_24_195
*1218 FILLER_24_197
*1219 FILLER_24_209
*1220 FILLER_24_22
*1221 FILLER_24_221
*1222 FILLER_24_233
*1223 FILLER_24_245
*1224 FILLER_24_251
*1225 FILLER_24_253
*1226 FILLER_24_265
*1227 FILLER_24_277
*1228 FILLER_24_289
*1229 FILLER_24_29
*1230 FILLER_24_301
*1231 FILLER_24_307
*1232 FILLER_24_309
*1233 FILLER_24_321
*1234 FILLER_24_333
*1235 FILLER_24_345
*1236 FILLER_24_357
*1237 FILLER_24_362
*1238 FILLER_24_41
*1239 FILLER_24_53
*1240 FILLER_24_6
*1241 FILLER_24_65
*1242 FILLER_24_77
*1243 FILLER_24_83
*1244 FILLER_24_85
*1245 FILLER_24_97
*1246 FILLER_25_105
*1247 FILLER_25_111
*1248 FILLER_25_113
*1249 FILLER_25_125
*1250 FILLER_25_137
*1251 FILLER_25_149
*1252 FILLER_25_161
*1253 FILLER_25_167
*1254 FILLER_25_169
*1255 FILLER_25_181
*1256 FILLER_25_19
*1257 FILLER_25_193
*1258 FILLER_25_205
*1259 FILLER_25_217
*1260 FILLER_25_223
*1261 FILLER_25_225
*1262 FILLER_25_237
*1263 FILLER_25_249
*1264 FILLER_25_261
*1265 FILLER_25_273
*1266 FILLER_25_279
*1267 FILLER_25_281
*1268 FILLER_25_293
*1269 FILLER_25_305
*1270 FILLER_25_31
*1271 FILLER_25_317
*1272 FILLER_25_329
*1273 FILLER_25_335
*1274 FILLER_25_337
*1275 FILLER_25_349
*1276 FILLER_25_362
*1277 FILLER_25_43
*1278 FILLER_25_55
*1279 FILLER_25_57
*1280 FILLER_25_69
*1281 FILLER_25_7
*1282 FILLER_25_81
*1283 FILLER_25_93
*1284 FILLER_26_109
*1285 FILLER_26_121
*1286 FILLER_26_133
*1287 FILLER_26_139
*1288 FILLER_26_141
*1289 FILLER_26_15
*1290 FILLER_26_153
*1291 FILLER_26_165
*1292 FILLER_26_177
*1293 FILLER_26_181
*1294 FILLER_26_193
*1295 FILLER_26_197
*1296 FILLER_26_209
*1297 FILLER_26_221
*1298 FILLER_26_233
*1299 FILLER_26_245
*1300 FILLER_26_251
*1301 FILLER_26_253
*1302 FILLER_26_265
*1303 FILLER_26_27
*1304 FILLER_26_277
*1305 FILLER_26_289
*1306 FILLER_26_29
*1307 FILLER_26_3
*1308 FILLER_26_301
*1309 FILLER_26_307
*1310 FILLER_26_309
*1311 FILLER_26_321
*1312 FILLER_26_333
*1313 FILLER_26_345
*1314 FILLER_26_357
*1315 FILLER_26_362
*1316 FILLER_26_41
*1317 FILLER_26_53
*1318 FILLER_26_65
*1319 FILLER_26_77
*1320 FILLER_26_83
*1321 FILLER_26_85
*1322 FILLER_26_97
*1323 FILLER_27_105
*1324 FILLER_27_111
*1325 FILLER_27_113
*1326 FILLER_27_125
*1327 FILLER_27_137
*1328 FILLER_27_149
*1329 FILLER_27_161
*1330 FILLER_27_167
*1331 FILLER_27_169
*1332 FILLER_27_179
*1333 FILLER_27_185
*1334 FILLER_27_19
*1335 FILLER_27_191
*1336 FILLER_27_195
*1337 FILLER_27_207
*1338 FILLER_27_219
*1339 FILLER_27_223
*1340 FILLER_27_225
*1341 FILLER_27_237
*1342 FILLER_27_249
*1343 FILLER_27_261
*1344 FILLER_27_273
*1345 FILLER_27_279
*1346 FILLER_27_281
*1347 FILLER_27_293
*1348 FILLER_27_305
*1349 FILLER_27_31
*1350 FILLER_27_311
*1351 FILLER_27_315
*1352 FILLER_27_327
*1353 FILLER_27_335
*1354 FILLER_27_337
*1355 FILLER_27_349
*1356 FILLER_27_356
*1357 FILLER_27_362
*1358 FILLER_27_43
*1359 FILLER_27_55
*1360 FILLER_27_57
*1361 FILLER_27_69
*1362 FILLER_27_7
*1363 FILLER_27_81
*1364 FILLER_27_93
*1365 FILLER_28_10
*1366 FILLER_28_109
*1367 FILLER_28_121
*1368 FILLER_28_133
*1369 FILLER_28_139
*1370 FILLER_28_141
*1371 FILLER_28_153
*1372 FILLER_28_161
*1373 FILLER_28_164
*1374 FILLER_28_170
*1375 FILLER_28_174
*1376 FILLER_28_18
*1377 FILLER_28_180
*1378 FILLER_28_186
*1379 FILLER_28_192
*1380 FILLER_28_197
*1381 FILLER_28_203
*1382 FILLER_28_215
*1383 FILLER_28_227
*1384 FILLER_28_239
*1385 FILLER_28_251
*1386 FILLER_28_253
*1387 FILLER_28_26
*1388 FILLER_28_265
*1389 FILLER_28_277
*1390 FILLER_28_289
*1391 FILLER_28_29
*1392 FILLER_28_3
*1393 FILLER_28_301
*1394 FILLER_28_307
*1395 FILLER_28_309
*1396 FILLER_28_315
*1397 FILLER_28_319
*1398 FILLER_28_331
*1399 FILLER_28_343
*1400 FILLER_28_355
*1401 FILLER_28_363
*1402 FILLER_28_41
*1403 FILLER_28_53
*1404 FILLER_28_65
*1405 FILLER_28_77
*1406 FILLER_28_83
*1407 FILLER_28_85
*1408 FILLER_28_97
*1409 FILLER_29_10
*1410 FILLER_29_104
*1411 FILLER_29_113
*1412 FILLER_29_125
*1413 FILLER_29_131
*1414 FILLER_29_143
*1415 FILLER_29_15
*1416 FILLER_29_155
*1417 FILLER_29_162
*1418 FILLER_29_166
*1419 FILLER_29_173
*1420 FILLER_29_179
*1421 FILLER_29_185
*1422 FILLER_29_191
*1423 FILLER_29_197
*1424 FILLER_29_203
*1425 FILLER_29_207
*1426 FILLER_29_219
*1427 FILLER_29_223
*1428 FILLER_29_225
*1429 FILLER_29_23
*1430 FILLER_29_237
*1431 FILLER_29_249
*1432 FILLER_29_257
*1433 FILLER_29_269
*1434 FILLER_29_277
*1435 FILLER_29_281
*1436 FILLER_29_289
*1437 FILLER_29_29
*1438 FILLER_29_3
*1439 FILLER_29_301
*1440 FILLER_29_310
*1441 FILLER_29_316
*1442 FILLER_29_320
*1443 FILLER_29_330
*1444 FILLER_29_337
*1445 FILLER_29_343
*1446 FILLER_29_351
*1447 FILLER_29_356
*1448 FILLER_29_362
*1449 FILLER_29_41
*1450 FILLER_29_51
*1451 FILLER_29_55
*1452 FILLER_29_57
*1453 FILLER_29_63
*1454 FILLER_29_68
*1455 FILLER_29_80
*1456 FILLER_29_92
*1457 FILLER_2_109
*1458 FILLER_2_121
*1459 FILLER_2_13
*1460 FILLER_2_133
*1461 FILLER_2_139
*1462 FILLER_2_141
*1463 FILLER_2_153
*1464 FILLER_2_165
*1465 FILLER_2_172
*1466 FILLER_2_18
*1467 FILLER_2_180
*1468 FILLER_2_185
*1469 FILLER_2_190
*1470 FILLER_2_199
*1471 FILLER_2_203
*1472 FILLER_2_215
*1473 FILLER_2_22
*1474 FILLER_2_227
*1475 FILLER_2_239
*1476 FILLER_2_251
*1477 FILLER_2_253
*1478 FILLER_2_265
*1479 FILLER_2_277
*1480 FILLER_2_289
*1481 FILLER_2_301
*1482 FILLER_2_307
*1483 FILLER_2_309
*1484 FILLER_2_31
*1485 FILLER_2_321
*1486 FILLER_2_333
*1487 FILLER_2_339
*1488 FILLER_2_342
*1489 FILLER_2_346
*1490 FILLER_2_35
*1491 FILLER_2_350
*1492 FILLER_2_356
*1493 FILLER_2_362
*1494 FILLER_2_47
*1495 FILLER_2_59
*1496 FILLER_2_7
*1497 FILLER_2_71
*1498 FILLER_2_75
*1499 FILLER_2_78
*1500 FILLER_2_85
*1501 FILLER_2_97
*1502 FILLER_30_109
*1503 FILLER_30_12
*1504 FILLER_30_121
*1505 FILLER_30_133
*1506 FILLER_30_139
*1507 FILLER_30_141
*1508 FILLER_30_153
*1509 FILLER_30_16
*1510 FILLER_30_165
*1511 FILLER_30_171
*1512 FILLER_30_174
*1513 FILLER_30_180
*1514 FILLER_30_186
*1515 FILLER_30_192
*1516 FILLER_30_199
*1517 FILLER_30_211
*1518 FILLER_30_216
*1519 FILLER_30_220
*1520 FILLER_30_232
*1521 FILLER_30_244
*1522 FILLER_30_253
*1523 FILLER_30_265
*1524 FILLER_30_277
*1525 FILLER_30_289
*1526 FILLER_30_29
*1527 FILLER_30_301
*1528 FILLER_30_307
*1529 FILLER_30_313
*1530 FILLER_30_325
*1531 FILLER_30_337
*1532 FILLER_30_349
*1533 FILLER_30_357
*1534 FILLER_30_362
*1535 FILLER_30_41
*1536 FILLER_30_53
*1537 FILLER_30_65
*1538 FILLER_30_7
*1539 FILLER_30_77
*1540 FILLER_30_83
*1541 FILLER_30_85
*1542 FILLER_30_97
*1543 FILLER_31_105
*1544 FILLER_31_11
*1545 FILLER_31_111
*1546 FILLER_31_113
*1547 FILLER_31_125
*1548 FILLER_31_137
*1549 FILLER_31_149
*1550 FILLER_31_161
*1551 FILLER_31_167
*1552 FILLER_31_169
*1553 FILLER_31_173
*1554 FILLER_31_176
*1555 FILLER_31_186
*1556 FILLER_31_192
*1557 FILLER_31_196
*1558 FILLER_31_208
*1559 FILLER_31_220
*1560 FILLER_31_225
*1561 FILLER_31_23
*1562 FILLER_31_237
*1563 FILLER_31_249
*1564 FILLER_31_261
*1565 FILLER_31_273
*1566 FILLER_31_279
*1567 FILLER_31_281
*1568 FILLER_31_293